version 2
run MCoA_ALL-0-20150319-13:19:34-24513
attr configname MCoA_ALL
attr datetime 20150319-13:19:34
attr experiment MCoA_ALL
attr inifile VoIPMCoACN.ini
attr iterationvars ""
attr iterationvars2 $repetition=0
attr measurement ""
attr network VoIPMCoAMulti
attr processid 24513
attr repetition 0
attr replication #0
attr resultdir results
attr runnumber 0
attr seedset 0

scalar VoIPMCoAMulti.Ra.networkLayer.ipv6 	IPv6_numDropNonActive 	0
scalar VoIPMCoAMulti.Ra.networkLayer.ipv6 	IPv6_Forwarded 	97
scalar VoIPMCoAMulti.Ra.eth[0].queue 	"packets received by queue" 	43
scalar VoIPMCoAMulti.Ra.eth[0].queue 	"packets dropped by queue" 	0
scalar VoIPMCoAMulti.Ra.eth[0].mac 	"simulated time" 	200
scalar VoIPMCoAMulti.Ra.eth[0].mac 	"txrate (Mb)" 	10
scalar VoIPMCoAMulti.Ra.eth[0].mac 	"full duplex" 	1
scalar VoIPMCoAMulti.Ra.eth[0].mac 	"frames sent" 	43
scalar VoIPMCoAMulti.Ra.eth[0].mac 	"frames rcvd" 	43
scalar VoIPMCoAMulti.Ra.eth[0].mac 	"bytes sent" 	4696
scalar VoIPMCoAMulti.Ra.eth[0].mac 	"bytes rcvd" 	5526
scalar VoIPMCoAMulti.Ra.eth[0].mac 	"frames from higher layer" 	43
scalar VoIPMCoAMulti.Ra.eth[0].mac 	"frames from higher layer dropped (iface down)" 	0
scalar VoIPMCoAMulti.Ra.eth[0].mac 	"frames dropped (bit error)" 	0
scalar VoIPMCoAMulti.Ra.eth[0].mac 	"frames dropped (not for us)" 	0
scalar VoIPMCoAMulti.Ra.eth[0].mac 	"frames passed up to HL" 	43
scalar VoIPMCoAMulti.Ra.eth[0].mac 	"PAUSE frames sent" 	0
scalar VoIPMCoAMulti.Ra.eth[0].mac 	"PAUSE frames rcvd" 	0
scalar VoIPMCoAMulti.Ra.eth[0].mac 	"frames/sec sent" 	0.215
scalar VoIPMCoAMulti.Ra.eth[0].mac 	"frames/sec rcvd" 	0.215
scalar VoIPMCoAMulti.Ra.eth[0].mac 	"bits/sec sent" 	187.84
scalar VoIPMCoAMulti.Ra.eth[0].mac 	"bits/sec rcvd" 	221.04
scalar VoIPMCoAMulti.Ra.eth[0].mac 	"rx channel idle (%)" 	99.997652
scalar VoIPMCoAMulti.Ra.eth[0].mac 	"rx channel utilization (%)" 	0.002348
scalar VoIPMCoAMulti.Ra.eth[0].mac 	"rx channel collision (%)" 	0
scalar VoIPMCoAMulti.Ra.eth[0].mac 	collisions 	0
scalar VoIPMCoAMulti.Ra.eth[0].mac 	backoffs 	0
scalar VoIPMCoAMulti.Ra.eth[0].encap 	"packets from higher layer" 	43
scalar VoIPMCoAMulti.Ra.eth[0].encap 	"frames from MAC" 	43
scalar VoIPMCoAMulti.Ra.eth[1].queue 	"packets received by queue" 	43
scalar VoIPMCoAMulti.Ra.eth[1].queue 	"packets dropped by queue" 	0
scalar VoIPMCoAMulti.Ra.eth[1].mac 	"simulated time" 	200
scalar VoIPMCoAMulti.Ra.eth[1].mac 	"txrate (Mb)" 	10
scalar VoIPMCoAMulti.Ra.eth[1].mac 	"full duplex" 	1
scalar VoIPMCoAMulti.Ra.eth[1].mac 	"frames sent" 	43
scalar VoIPMCoAMulti.Ra.eth[1].mac 	"frames rcvd" 	43
scalar VoIPMCoAMulti.Ra.eth[1].mac 	"bytes sent" 	5664
scalar VoIPMCoAMulti.Ra.eth[1].mac 	"bytes rcvd" 	4886
scalar VoIPMCoAMulti.Ra.eth[1].mac 	"frames from higher layer" 	43
scalar VoIPMCoAMulti.Ra.eth[1].mac 	"frames from higher layer dropped (iface down)" 	0
scalar VoIPMCoAMulti.Ra.eth[1].mac 	"frames dropped (bit error)" 	0
scalar VoIPMCoAMulti.Ra.eth[1].mac 	"frames dropped (not for us)" 	0
scalar VoIPMCoAMulti.Ra.eth[1].mac 	"frames passed up to HL" 	43
scalar VoIPMCoAMulti.Ra.eth[1].mac 	"PAUSE frames sent" 	0
scalar VoIPMCoAMulti.Ra.eth[1].mac 	"PAUSE frames rcvd" 	0
scalar VoIPMCoAMulti.Ra.eth[1].mac 	"frames/sec sent" 	0.215
scalar VoIPMCoAMulti.Ra.eth[1].mac 	"frames/sec rcvd" 	0.215
scalar VoIPMCoAMulti.Ra.eth[1].mac 	"bits/sec sent" 	226.56
scalar VoIPMCoAMulti.Ra.eth[1].mac 	"bits/sec rcvd" 	195.44
scalar VoIPMCoAMulti.Ra.eth[1].mac 	"rx channel idle (%)" 	99.997908
scalar VoIPMCoAMulti.Ra.eth[1].mac 	"rx channel utilization (%)" 	0.002092
scalar VoIPMCoAMulti.Ra.eth[1].mac 	"rx channel collision (%)" 	0
scalar VoIPMCoAMulti.Ra.eth[1].mac 	collisions 	0
scalar VoIPMCoAMulti.Ra.eth[1].mac 	backoffs 	0
scalar VoIPMCoAMulti.Ra.eth[1].encap 	"packets from higher layer" 	43
scalar VoIPMCoAMulti.Ra.eth[1].encap 	"frames from MAC" 	43
scalar VoIPMCoAMulti.Ra.eth[2].queue 	"packets received by queue" 	11
scalar VoIPMCoAMulti.Ra.eth[2].queue 	"packets dropped by queue" 	0
scalar VoIPMCoAMulti.Ra.eth[2].mac 	"simulated time" 	200
scalar VoIPMCoAMulti.Ra.eth[2].mac 	"txrate (Mb)" 	10
scalar VoIPMCoAMulti.Ra.eth[2].mac 	"full duplex" 	1
scalar VoIPMCoAMulti.Ra.eth[2].mac 	"frames sent" 	11
scalar VoIPMCoAMulti.Ra.eth[2].mac 	"frames rcvd" 	11
scalar VoIPMCoAMulti.Ra.eth[2].mac 	"bytes sent" 	982
scalar VoIPMCoAMulti.Ra.eth[2].mac 	"bytes rcvd" 	930
scalar VoIPMCoAMulti.Ra.eth[2].mac 	"frames from higher layer" 	11
scalar VoIPMCoAMulti.Ra.eth[2].mac 	"frames from higher layer dropped (iface down)" 	0
scalar VoIPMCoAMulti.Ra.eth[2].mac 	"frames dropped (bit error)" 	0
scalar VoIPMCoAMulti.Ra.eth[2].mac 	"frames dropped (not for us)" 	0
scalar VoIPMCoAMulti.Ra.eth[2].mac 	"frames passed up to HL" 	11
scalar VoIPMCoAMulti.Ra.eth[2].mac 	"PAUSE frames sent" 	0
scalar VoIPMCoAMulti.Ra.eth[2].mac 	"PAUSE frames rcvd" 	0
scalar VoIPMCoAMulti.Ra.eth[2].mac 	"frames/sec sent" 	0.055
scalar VoIPMCoAMulti.Ra.eth[2].mac 	"frames/sec rcvd" 	0.055
scalar VoIPMCoAMulti.Ra.eth[2].mac 	"bits/sec sent" 	39.28
scalar VoIPMCoAMulti.Ra.eth[2].mac 	"bits/sec rcvd" 	37.2
scalar VoIPMCoAMulti.Ra.eth[2].mac 	"rx channel idle (%)" 	99.9995928
scalar VoIPMCoAMulti.Ra.eth[2].mac 	"rx channel utilization (%)" 	0.0004072
scalar VoIPMCoAMulti.Ra.eth[2].mac 	"rx channel collision (%)" 	0
scalar VoIPMCoAMulti.Ra.eth[2].mac 	collisions 	0
scalar VoIPMCoAMulti.Ra.eth[2].mac 	backoffs 	0
scalar VoIPMCoAMulti.Ra.eth[2].encap 	"packets from higher layer" 	11
scalar VoIPMCoAMulti.Ra.eth[2].encap 	"frames from MAC" 	11
scalar VoIPMCoAMulti.CN[0].pingApp 	"Pings sent" 	0
scalar VoIPMCoAMulti.CN[0].networkLayer.ipv6 	IPv6_numDropNonActive 	0
scalar VoIPMCoAMulti.CN[0].networkLayer.ipv6 	IPv6_Forwarded 	14
scalar VoIPMCoAMulti.CN[0].eth[0].queue 	"packets received by queue" 	14
scalar VoIPMCoAMulti.CN[0].eth[0].queue 	"packets dropped by queue" 	0
scalar VoIPMCoAMulti.CN[0].eth[0].mac 	"simulated time" 	200
scalar VoIPMCoAMulti.CN[0].eth[0].mac 	"txrate (Mb)" 	10
scalar VoIPMCoAMulti.CN[0].eth[0].mac 	"full duplex" 	0
scalar VoIPMCoAMulti.CN[0].eth[0].mac 	"frames sent" 	14
scalar VoIPMCoAMulti.CN[0].eth[0].mac 	"frames rcvd" 	13
scalar VoIPMCoAMulti.CN[0].eth[0].mac 	"bytes sent" 	1122
scalar VoIPMCoAMulti.CN[0].eth[0].mac 	"bytes rcvd" 	1110
scalar VoIPMCoAMulti.CN[0].eth[0].mac 	"frames from higher layer" 	14
scalar VoIPMCoAMulti.CN[0].eth[0].mac 	"frames from higher layer dropped (iface down)" 	0
scalar VoIPMCoAMulti.CN[0].eth[0].mac 	"frames dropped (bit error)" 	0
scalar VoIPMCoAMulti.CN[0].eth[0].mac 	"frames dropped (not for us)" 	0
scalar VoIPMCoAMulti.CN[0].eth[0].mac 	"frames passed up to HL" 	13
scalar VoIPMCoAMulti.CN[0].eth[0].mac 	"PAUSE frames sent" 	0
scalar VoIPMCoAMulti.CN[0].eth[0].mac 	"PAUSE frames rcvd" 	0
scalar VoIPMCoAMulti.CN[0].eth[0].mac 	"frames/sec sent" 	0.07
scalar VoIPMCoAMulti.CN[0].eth[0].mac 	"frames/sec rcvd" 	0.065
scalar VoIPMCoAMulti.CN[0].eth[0].mac 	"bits/sec sent" 	44.88
scalar VoIPMCoAMulti.CN[0].eth[0].mac 	"bits/sec rcvd" 	44.4
scalar VoIPMCoAMulti.CN[0].eth[0].mac 	"rx channel idle (%)" 	99.9990208
scalar VoIPMCoAMulti.CN[0].eth[0].mac 	"rx channel utilization (%)" 	0.0009792
scalar VoIPMCoAMulti.CN[0].eth[0].mac 	"rx channel collision (%)" 	0
scalar VoIPMCoAMulti.CN[0].eth[0].mac 	collisions 	0
scalar VoIPMCoAMulti.CN[0].eth[0].mac 	backoffs 	0
scalar VoIPMCoAMulti.CN[0].eth[0].encap 	"packets from higher layer" 	14
scalar VoIPMCoAMulti.CN[0].eth[0].encap 	"frames from MAC" 	13
scalar VoIPMCoAMulti.hub 	"simulated time" 	200
scalar VoIPMCoAMulti.hub 	"messages handled" 	29
scalar VoIPMCoAMulti.hub 	messages/sec 	0.145
scalar VoIPMCoAMulti.HA.pingApp 	"Pings sent" 	0
scalar VoIPMCoAMulti.HA.networkLayer.ipv6 	IPv6_numDropNonActive 	102
scalar VoIPMCoAMulti.HA.networkLayer.ipv6 	IPv6_Forwarded 	3964
scalar VoIPMCoAMulti.HA.eth[0].queue 	"packets received by queue" 	43
scalar VoIPMCoAMulti.HA.eth[0].queue 	"packets dropped by queue" 	0
scalar VoIPMCoAMulti.HA.eth[0].mac 	"simulated time" 	200
scalar VoIPMCoAMulti.HA.eth[0].mac 	"txrate (Mb)" 	10
scalar VoIPMCoAMulti.HA.eth[0].mac 	"full duplex" 	1
scalar VoIPMCoAMulti.HA.eth[0].mac 	"frames sent" 	43
scalar VoIPMCoAMulti.HA.eth[0].mac 	"frames rcvd" 	43
scalar VoIPMCoAMulti.HA.eth[0].mac 	"bytes sent" 	5526
scalar VoIPMCoAMulti.HA.eth[0].mac 	"bytes rcvd" 	4696
scalar VoIPMCoAMulti.HA.eth[0].mac 	"frames from higher layer" 	43
scalar VoIPMCoAMulti.HA.eth[0].mac 	"frames from higher layer dropped (iface down)" 	0
scalar VoIPMCoAMulti.HA.eth[0].mac 	"frames dropped (bit error)" 	0
scalar VoIPMCoAMulti.HA.eth[0].mac 	"frames dropped (not for us)" 	0
scalar VoIPMCoAMulti.HA.eth[0].mac 	"frames passed up to HL" 	43
scalar VoIPMCoAMulti.HA.eth[0].mac 	"PAUSE frames sent" 	0
scalar VoIPMCoAMulti.HA.eth[0].mac 	"PAUSE frames rcvd" 	0
scalar VoIPMCoAMulti.HA.eth[0].mac 	"frames/sec sent" 	0.215
scalar VoIPMCoAMulti.HA.eth[0].mac 	"frames/sec rcvd" 	0.215
scalar VoIPMCoAMulti.HA.eth[0].mac 	"bits/sec sent" 	221.04
scalar VoIPMCoAMulti.HA.eth[0].mac 	"bits/sec rcvd" 	187.84
scalar VoIPMCoAMulti.HA.eth[0].mac 	"rx channel idle (%)" 	99.997984
scalar VoIPMCoAMulti.HA.eth[0].mac 	"rx channel utilization (%)" 	0.002016
scalar VoIPMCoAMulti.HA.eth[0].mac 	"rx channel collision (%)" 	0
scalar VoIPMCoAMulti.HA.eth[0].mac 	collisions 	0
scalar VoIPMCoAMulti.HA.eth[0].mac 	backoffs 	0
scalar VoIPMCoAMulti.HA.eth[0].encap 	"packets from higher layer" 	43
scalar VoIPMCoAMulti.HA.eth[0].encap 	"frames from MAC" 	43
scalar VoIPMCoAMulti.HA.eth[1].queue 	"packets received by queue" 	3921
scalar VoIPMCoAMulti.HA.eth[1].queue 	"packets dropped by queue" 	0
scalar VoIPMCoAMulti.HA.eth[1].mac 	"simulated time" 	200
scalar VoIPMCoAMulti.HA.eth[1].mac 	"txrate (Mb)" 	10
scalar VoIPMCoAMulti.HA.eth[1].mac 	"full duplex" 	1
scalar VoIPMCoAMulti.HA.eth[1].mac 	"frames sent" 	3921
scalar VoIPMCoAMulti.HA.eth[1].mac 	"frames rcvd" 	6
scalar VoIPMCoAMulti.HA.eth[1].mac 	"bytes sent" 	250946
scalar VoIPMCoAMulti.HA.eth[1].mac 	"bytes rcvd" 	256
scalar VoIPMCoAMulti.HA.eth[1].mac 	"frames from higher layer" 	3921
scalar VoIPMCoAMulti.HA.eth[1].mac 	"frames from higher layer dropped (iface down)" 	0
scalar VoIPMCoAMulti.HA.eth[1].mac 	"frames dropped (bit error)" 	0
scalar VoIPMCoAMulti.HA.eth[1].mac 	"frames dropped (not for us)" 	0
scalar VoIPMCoAMulti.HA.eth[1].mac 	"frames passed up to HL" 	6
scalar VoIPMCoAMulti.HA.eth[1].mac 	"PAUSE frames sent" 	0
scalar VoIPMCoAMulti.HA.eth[1].mac 	"PAUSE frames rcvd" 	0
scalar VoIPMCoAMulti.HA.eth[1].mac 	"frames/sec sent" 	19.605
scalar VoIPMCoAMulti.HA.eth[1].mac 	"frames/sec rcvd" 	0.03
scalar VoIPMCoAMulti.HA.eth[1].mac 	"bits/sec sent" 	10037.84
scalar VoIPMCoAMulti.HA.eth[1].mac 	"bits/sec rcvd" 	10.24
scalar VoIPMCoAMulti.HA.eth[1].mac 	"rx channel idle (%)" 	99.9998784
scalar VoIPMCoAMulti.HA.eth[1].mac 	"rx channel utilization (%)" 	0.0001216
scalar VoIPMCoAMulti.HA.eth[1].mac 	"rx channel collision (%)" 	0
scalar VoIPMCoAMulti.HA.eth[1].mac 	collisions 	0
scalar VoIPMCoAMulti.HA.eth[1].mac 	backoffs 	0
scalar VoIPMCoAMulti.HA.eth[1].encap 	"packets from higher layer" 	3921
scalar VoIPMCoAMulti.HA.eth[1].encap 	"frames from MAC" 	6
scalar VoIPMCoAMulti.AP_HA.wlan.mgmt 	"packets received by queue" 	5939
scalar VoIPMCoAMulti.AP_HA.wlan.mgmt 	"packets dropped by queue" 	0
scalar VoIPMCoAMulti.AP_HA.wlan.mac 	numSent 	16
scalar VoIPMCoAMulti.AP_HA.wlan.mac 	numSentWithoutRetry 	16
scalar VoIPMCoAMulti.AP_HA.wlan.mac 	numReceived 	17
scalar VoIPMCoAMulti.AP_HA.wlan.mac 	numSentBroadcast 	5923
scalar VoIPMCoAMulti.AP_HA.wlan.mac 	numReceivedBroadcast 	3
scalar VoIPMCoAMulti.AP_HA.wlan.mac 	numReceivedOther 	0
scalar VoIPMCoAMulti.AP_HA.wlan.mac 	numCollision 	0
scalar VoIPMCoAMulti.AP_HA.wlan.mac 	numGivenUp 	0
scalar VoIPMCoAMulti.AP_HA.wlan.mac 	numAckSend 	17
scalar VoIPMCoAMulti.AP_HA.wlan.mac 	numRetry 	0
scalar VoIPMCoAMulti.MN[0].pingApp 	"Pings sent" 	0
scalar VoIPMCoAMulti.MN[0].networkLayer.ipv6 	IPv6_numDropNonActive 	0
scalar VoIPMCoAMulti.MN[0].networkLayer.ipv6 	IPv6_Forwarded 	100
scalar VoIPMCoAMulti.MN[0].wlan[0].mgmt 	"packets received by queue" 	603
scalar VoIPMCoAMulti.MN[0].wlan[0].mgmt 	"packets dropped by queue" 	0
scalar VoIPMCoAMulti.MN[0].wlan[0].mac 	numSent 	13
scalar VoIPMCoAMulti.MN[0].wlan[0].mac 	numSentWithoutRetry 	13
scalar VoIPMCoAMulti.MN[0].wlan[0].mac 	numReceived 	12
scalar VoIPMCoAMulti.MN[0].wlan[0].mac 	numSentBroadcast 	590
scalar VoIPMCoAMulti.MN[0].wlan[0].mac 	numReceivedBroadcast 	1483
scalar VoIPMCoAMulti.MN[0].wlan[0].mac 	numReceivedOther 	2
scalar VoIPMCoAMulti.MN[0].wlan[0].mac 	numCollision 	0
scalar VoIPMCoAMulti.MN[0].wlan[0].mac 	numGivenUp 	0
scalar VoIPMCoAMulti.MN[0].wlan[0].mac 	numAckSend 	12
scalar VoIPMCoAMulti.MN[0].wlan[0].mac 	numRetry 	0
scalar VoIPMCoAMulti.MN[0].wlan[1].mgmt 	"packets received by queue" 	328
scalar VoIPMCoAMulti.MN[0].wlan[1].mgmt 	"packets dropped by queue" 	0
scalar VoIPMCoAMulti.MN[0].wlan[1].mac 	numSent 	37
scalar VoIPMCoAMulti.MN[0].wlan[1].mac 	numSentWithoutRetry 	37
scalar VoIPMCoAMulti.MN[0].wlan[1].mac 	numReceived 	32
scalar VoIPMCoAMulti.MN[0].wlan[1].mac 	numSentBroadcast 	291
scalar VoIPMCoAMulti.MN[0].wlan[1].mac 	numReceivedBroadcast 	3509
scalar VoIPMCoAMulti.MN[0].wlan[1].mac 	numReceivedOther 	0
scalar VoIPMCoAMulti.MN[0].wlan[1].mac 	numCollision 	0
scalar VoIPMCoAMulti.MN[0].wlan[1].mac 	numGivenUp 	0
scalar VoIPMCoAMulti.MN[0].wlan[1].mac 	numAckSend 	32
scalar VoIPMCoAMulti.MN[0].wlan[1].mac 	numRetry 	0
scalar VoIPMCoAMulti.MN[0].wlan[2].mgmt 	"packets received by queue" 	416
scalar VoIPMCoAMulti.MN[0].wlan[2].mgmt 	"packets dropped by queue" 	0
scalar VoIPMCoAMulti.MN[0].wlan[2].mac 	numSent 	47
scalar VoIPMCoAMulti.MN[0].wlan[2].mac 	numSentWithoutRetry 	46
scalar VoIPMCoAMulti.MN[0].wlan[2].mac 	numReceived 	46
scalar VoIPMCoAMulti.MN[0].wlan[2].mac 	numSentBroadcast 	369
scalar VoIPMCoAMulti.MN[0].wlan[2].mac 	numReceivedBroadcast 	3053
scalar VoIPMCoAMulti.MN[0].wlan[2].mac 	numReceivedOther 	0
scalar VoIPMCoAMulti.MN[0].wlan[2].mac 	numCollision 	0
scalar VoIPMCoAMulti.MN[0].wlan[2].mac 	numGivenUp 	0
scalar VoIPMCoAMulti.MN[0].wlan[2].mac 	numAckSend 	46
scalar VoIPMCoAMulti.MN[0].wlan[2].mac 	numRetry 	2
scalar VoIPMCoAMulti.MN[1].pingApp 	"Pings sent" 	0
scalar VoIPMCoAMulti.MN[1].networkLayer.ipv6 	IPv6_numDropNonActive 	0
scalar VoIPMCoAMulti.MN[1].networkLayer.ipv6 	IPv6_Forwarded 	4
scalar VoIPMCoAMulti.MN[1].wlan[0].mgmt 	"packets received by queue" 	5
scalar VoIPMCoAMulti.MN[1].wlan[0].mgmt 	"packets dropped by queue" 	0
scalar VoIPMCoAMulti.MN[1].wlan[0].mac 	numSent 	4
scalar VoIPMCoAMulti.MN[1].wlan[0].mac 	numSentWithoutRetry 	4
scalar VoIPMCoAMulti.MN[1].wlan[0].mac 	numReceived 	4
scalar VoIPMCoAMulti.MN[1].wlan[0].mac 	numSentBroadcast 	1
scalar VoIPMCoAMulti.MN[1].wlan[0].mac 	numReceivedBroadcast 	6011
scalar VoIPMCoAMulti.MN[1].wlan[0].mac 	numReceivedOther 	50
scalar VoIPMCoAMulti.MN[1].wlan[0].mac 	numCollision 	2
scalar VoIPMCoAMulti.MN[1].wlan[0].mac 	numGivenUp 	0
scalar VoIPMCoAMulti.MN[1].wlan[0].mac 	numAckSend 	4
scalar VoIPMCoAMulti.MN[1].wlan[0].mac 	numRetry 	0
scalar VoIPMCoAMulti.R1.networkLayer.ipv6 	IPv6_numDropNonActive 	400
scalar VoIPMCoAMulti.R1.networkLayer.ipv6 	IPv6_Forwarded 	7692
scalar VoIPMCoAMulti.R1.eth[0].queue 	"packets received by queue" 	43
scalar VoIPMCoAMulti.R1.eth[0].queue 	"packets dropped by queue" 	0
scalar VoIPMCoAMulti.R1.eth[0].mac 	"simulated time" 	200
scalar VoIPMCoAMulti.R1.eth[0].mac 	"txrate (Mb)" 	10
scalar VoIPMCoAMulti.R1.eth[0].mac 	"full duplex" 	1
scalar VoIPMCoAMulti.R1.eth[0].mac 	"frames sent" 	43
scalar VoIPMCoAMulti.R1.eth[0].mac 	"frames rcvd" 	43
scalar VoIPMCoAMulti.R1.eth[0].mac 	"bytes sent" 	4886
scalar VoIPMCoAMulti.R1.eth[0].mac 	"bytes rcvd" 	5664
scalar VoIPMCoAMulti.R1.eth[0].mac 	"frames from higher layer" 	43
scalar VoIPMCoAMulti.R1.eth[0].mac 	"frames from higher layer dropped (iface down)" 	0
scalar VoIPMCoAMulti.R1.eth[0].mac 	"frames dropped (bit error)" 	0
scalar VoIPMCoAMulti.R1.eth[0].mac 	"frames dropped (not for us)" 	0
scalar VoIPMCoAMulti.R1.eth[0].mac 	"frames passed up to HL" 	43
scalar VoIPMCoAMulti.R1.eth[0].mac 	"PAUSE frames sent" 	0
scalar VoIPMCoAMulti.R1.eth[0].mac 	"PAUSE frames rcvd" 	0
scalar VoIPMCoAMulti.R1.eth[0].mac 	"frames/sec sent" 	0.215
scalar VoIPMCoAMulti.R1.eth[0].mac 	"frames/sec rcvd" 	0.215
scalar VoIPMCoAMulti.R1.eth[0].mac 	"bits/sec sent" 	195.44
scalar VoIPMCoAMulti.R1.eth[0].mac 	"bits/sec rcvd" 	226.56
scalar VoIPMCoAMulti.R1.eth[0].mac 	"rx channel idle (%)" 	99.9975968
scalar VoIPMCoAMulti.R1.eth[0].mac 	"rx channel utilization (%)" 	0.0024032
scalar VoIPMCoAMulti.R1.eth[0].mac 	"rx channel collision (%)" 	0
scalar VoIPMCoAMulti.R1.eth[0].mac 	collisions 	0
scalar VoIPMCoAMulti.R1.eth[0].mac 	backoffs 	0
scalar VoIPMCoAMulti.R1.eth[0].encap 	"packets from higher layer" 	43
scalar VoIPMCoAMulti.R1.eth[0].encap 	"frames from MAC" 	43
scalar VoIPMCoAMulti.R1.eth[1].queue 	"packets received by queue" 	3818
scalar VoIPMCoAMulti.R1.eth[1].queue 	"packets dropped by queue" 	0
scalar VoIPMCoAMulti.R1.eth[1].mac 	"simulated time" 	200
scalar VoIPMCoAMulti.R1.eth[1].mac 	"txrate (Mb)" 	10
scalar VoIPMCoAMulti.R1.eth[1].mac 	"full duplex" 	1
scalar VoIPMCoAMulti.R1.eth[1].mac 	"frames sent" 	3818
scalar VoIPMCoAMulti.R1.eth[1].mac 	"frames rcvd" 	29
scalar VoIPMCoAMulti.R1.eth[1].mac 	"bytes sent" 	245690
scalar VoIPMCoAMulti.R1.eth[1].mac 	"bytes rcvd" 	2200
scalar VoIPMCoAMulti.R1.eth[1].mac 	"frames from higher layer" 	3818
scalar VoIPMCoAMulti.R1.eth[1].mac 	"frames from higher layer dropped (iface down)" 	0
scalar VoIPMCoAMulti.R1.eth[1].mac 	"frames dropped (bit error)" 	0
scalar VoIPMCoAMulti.R1.eth[1].mac 	"frames dropped (not for us)" 	0
scalar VoIPMCoAMulti.R1.eth[1].mac 	"frames passed up to HL" 	29
scalar VoIPMCoAMulti.R1.eth[1].mac 	"PAUSE frames sent" 	0
scalar VoIPMCoAMulti.R1.eth[1].mac 	"PAUSE frames rcvd" 	0
scalar VoIPMCoAMulti.R1.eth[1].mac 	"frames/sec sent" 	19.09
scalar VoIPMCoAMulti.R1.eth[1].mac 	"frames/sec rcvd" 	0.145
scalar VoIPMCoAMulti.R1.eth[1].mac 	"bits/sec sent" 	9827.6
scalar VoIPMCoAMulti.R1.eth[1].mac 	"bits/sec rcvd" 	88
scalar VoIPMCoAMulti.R1.eth[1].mac 	"rx channel idle (%)" 	99.9990272
scalar VoIPMCoAMulti.R1.eth[1].mac 	"rx channel utilization (%)" 	0.0009728
scalar VoIPMCoAMulti.R1.eth[1].mac 	"rx channel collision (%)" 	0
scalar VoIPMCoAMulti.R1.eth[1].mac 	collisions 	0
scalar VoIPMCoAMulti.R1.eth[1].mac 	backoffs 	0
scalar VoIPMCoAMulti.R1.eth[1].encap 	"packets from higher layer" 	3818
scalar VoIPMCoAMulti.R1.eth[1].encap 	"frames from MAC" 	29
scalar VoIPMCoAMulti.R1.eth[2].queue 	"packets received by queue" 	3831
scalar VoIPMCoAMulti.R1.eth[2].queue 	"packets dropped by queue" 	0
scalar VoIPMCoAMulti.R1.eth[2].mac 	"simulated time" 	200
scalar VoIPMCoAMulti.R1.eth[2].mac 	"txrate (Mb)" 	10
scalar VoIPMCoAMulti.R1.eth[2].mac 	"full duplex" 	1
scalar VoIPMCoAMulti.R1.eth[2].mac 	"frames sent" 	3831
scalar VoIPMCoAMulti.R1.eth[2].mac 	"frames rcvd" 	39
scalar VoIPMCoAMulti.R1.eth[2].mac 	"bytes sent" 	248198
scalar VoIPMCoAMulti.R1.eth[2].mac 	"bytes rcvd" 	3046
scalar VoIPMCoAMulti.R1.eth[2].mac 	"frames from higher layer" 	3831
scalar VoIPMCoAMulti.R1.eth[2].mac 	"frames from higher layer dropped (iface down)" 	0
scalar VoIPMCoAMulti.R1.eth[2].mac 	"frames dropped (bit error)" 	0
scalar VoIPMCoAMulti.R1.eth[2].mac 	"frames dropped (not for us)" 	0
scalar VoIPMCoAMulti.R1.eth[2].mac 	"frames passed up to HL" 	39
scalar VoIPMCoAMulti.R1.eth[2].mac 	"PAUSE frames sent" 	0
scalar VoIPMCoAMulti.R1.eth[2].mac 	"PAUSE frames rcvd" 	0
scalar VoIPMCoAMulti.R1.eth[2].mac 	"frames/sec sent" 	19.155
scalar VoIPMCoAMulti.R1.eth[2].mac 	"frames/sec rcvd" 	0.195
scalar VoIPMCoAMulti.R1.eth[2].mac 	"bits/sec sent" 	9927.92
scalar VoIPMCoAMulti.R1.eth[2].mac 	"bits/sec rcvd" 	121.84
scalar VoIPMCoAMulti.R1.eth[2].mac 	"rx channel idle (%)" 	99.9986568
scalar VoIPMCoAMulti.R1.eth[2].mac 	"rx channel utilization (%)" 	0.0013432
scalar VoIPMCoAMulti.R1.eth[2].mac 	"rx channel collision (%)" 	0
scalar VoIPMCoAMulti.R1.eth[2].mac 	collisions 	0
scalar VoIPMCoAMulti.R1.eth[2].mac 	backoffs 	0
scalar VoIPMCoAMulti.R1.eth[2].encap 	"packets from higher layer" 	3831
scalar VoIPMCoAMulti.R1.eth[2].encap 	"frames from MAC" 	39
scalar VoIPMCoAMulti.AP_1.wlan.mgmt 	"packets received by queue" 	5852
scalar VoIPMCoAMulti.AP_1.wlan.mgmt 	"packets dropped by queue" 	0
scalar VoIPMCoAMulti.AP_1.wlan.mac 	numSent 	32
scalar VoIPMCoAMulti.AP_1.wlan.mac 	numSentWithoutRetry 	32
scalar VoIPMCoAMulti.AP_1.wlan.mac 	numReceived 	37
scalar VoIPMCoAMulti.AP_1.wlan.mac 	numSentBroadcast 	5820
scalar VoIPMCoAMulti.AP_1.wlan.mac 	numReceivedBroadcast 	3
scalar VoIPMCoAMulti.AP_1.wlan.mac 	numReceivedOther 	0
scalar VoIPMCoAMulti.AP_1.wlan.mac 	numCollision 	0
scalar VoIPMCoAMulti.AP_1.wlan.mac 	numGivenUp 	0
scalar VoIPMCoAMulti.AP_1.wlan.mac 	numAckSend 	37
scalar VoIPMCoAMulti.AP_1.wlan.mac 	numRetry 	0
scalar VoIPMCoAMulti.AP_2.wlan.mgmt 	"packets received by queue" 	5874
scalar VoIPMCoAMulti.AP_2.wlan.mgmt 	"packets dropped by queue" 	0
scalar VoIPMCoAMulti.AP_2.wlan.mac 	numSent 	46
scalar VoIPMCoAMulti.AP_2.wlan.mac 	numSentWithoutRetry 	46
scalar VoIPMCoAMulti.AP_2.wlan.mac 	numReceived 	47
scalar VoIPMCoAMulti.AP_2.wlan.mac 	numSentBroadcast 	5824
scalar VoIPMCoAMulti.AP_2.wlan.mac 	numReceivedBroadcast 	2
scalar VoIPMCoAMulti.AP_2.wlan.mac 	numReceivedOther 	0
scalar VoIPMCoAMulti.AP_2.wlan.mac 	numCollision 	0
scalar VoIPMCoAMulti.AP_2.wlan.mac 	numGivenUp 	4
scalar VoIPMCoAMulti.AP_2.wlan.mac 	numAckSend 	47
scalar VoIPMCoAMulti.AP_2.wlan.mac 	numRetry 	24
scalar VoIPMCoAMulti.Rb.networkLayer.ipv6 	IPv6_numDropNonActive 	0
scalar VoIPMCoAMulti.Rb.networkLayer.ipv6 	IPv6_Forwarded 	24
scalar VoIPMCoAMulti.Rb.eth[0].queue 	"packets received by queue" 	11
scalar VoIPMCoAMulti.Rb.eth[0].queue 	"packets dropped by queue" 	0
scalar VoIPMCoAMulti.Rb.eth[0].mac 	"simulated time" 	200
scalar VoIPMCoAMulti.Rb.eth[0].mac 	"txrate (Mb)" 	10
scalar VoIPMCoAMulti.Rb.eth[0].mac 	"full duplex" 	1
scalar VoIPMCoAMulti.Rb.eth[0].mac 	"frames sent" 	11
scalar VoIPMCoAMulti.Rb.eth[0].mac 	"frames rcvd" 	11
scalar VoIPMCoAMulti.Rb.eth[0].mac 	"bytes sent" 	930
scalar VoIPMCoAMulti.Rb.eth[0].mac 	"bytes rcvd" 	982
scalar VoIPMCoAMulti.Rb.eth[0].mac 	"frames from higher layer" 	11
scalar VoIPMCoAMulti.Rb.eth[0].mac 	"frames from higher layer dropped (iface down)" 	0
scalar VoIPMCoAMulti.Rb.eth[0].mac 	"frames dropped (bit error)" 	0
scalar VoIPMCoAMulti.Rb.eth[0].mac 	"frames dropped (not for us)" 	0
scalar VoIPMCoAMulti.Rb.eth[0].mac 	"frames passed up to HL" 	11
scalar VoIPMCoAMulti.Rb.eth[0].mac 	"PAUSE frames sent" 	0
scalar VoIPMCoAMulti.Rb.eth[0].mac 	"PAUSE frames rcvd" 	0
scalar VoIPMCoAMulti.Rb.eth[0].mac 	"frames/sec sent" 	0.055
scalar VoIPMCoAMulti.Rb.eth[0].mac 	"frames/sec rcvd" 	0.055
scalar VoIPMCoAMulti.Rb.eth[0].mac 	"bits/sec sent" 	37.2
scalar VoIPMCoAMulti.Rb.eth[0].mac 	"bits/sec rcvd" 	39.28
scalar VoIPMCoAMulti.Rb.eth[0].mac 	"rx channel idle (%)" 	99.999572
scalar VoIPMCoAMulti.Rb.eth[0].mac 	"rx channel utilization (%)" 	0.000428
scalar VoIPMCoAMulti.Rb.eth[0].mac 	"rx channel collision (%)" 	0
scalar VoIPMCoAMulti.Rb.eth[0].mac 	collisions 	0
scalar VoIPMCoAMulti.Rb.eth[0].mac 	backoffs 	0
scalar VoIPMCoAMulti.Rb.eth[0].encap 	"packets from higher layer" 	11
scalar VoIPMCoAMulti.Rb.eth[0].encap 	"frames from MAC" 	11
scalar VoIPMCoAMulti.Rb.eth[1].queue 	"packets received by queue" 	13
scalar VoIPMCoAMulti.Rb.eth[1].queue 	"packets dropped by queue" 	0
scalar VoIPMCoAMulti.Rb.eth[1].mac 	"simulated time" 	200
scalar VoIPMCoAMulti.Rb.eth[1].mac 	"txrate (Mb)" 	10
scalar VoIPMCoAMulti.Rb.eth[1].mac 	"full duplex" 	0
scalar VoIPMCoAMulti.Rb.eth[1].mac 	"frames sent" 	13
scalar VoIPMCoAMulti.Rb.eth[1].mac 	"frames rcvd" 	14
scalar VoIPMCoAMulti.Rb.eth[1].mac 	"bytes sent" 	1110
scalar VoIPMCoAMulti.Rb.eth[1].mac 	"bytes rcvd" 	1122
scalar VoIPMCoAMulti.Rb.eth[1].mac 	"frames from higher layer" 	13
scalar VoIPMCoAMulti.Rb.eth[1].mac 	"frames from higher layer dropped (iface down)" 	0
scalar VoIPMCoAMulti.Rb.eth[1].mac 	"frames dropped (bit error)" 	0
scalar VoIPMCoAMulti.Rb.eth[1].mac 	"frames dropped (not for us)" 	0
scalar VoIPMCoAMulti.Rb.eth[1].mac 	"frames passed up to HL" 	14
scalar VoIPMCoAMulti.Rb.eth[1].mac 	"PAUSE frames sent" 	0
scalar VoIPMCoAMulti.Rb.eth[1].mac 	"PAUSE frames rcvd" 	0
scalar VoIPMCoAMulti.Rb.eth[1].mac 	"frames/sec sent" 	0.065
scalar VoIPMCoAMulti.Rb.eth[1].mac 	"frames/sec rcvd" 	0.07
scalar VoIPMCoAMulti.Rb.eth[1].mac 	"bits/sec sent" 	44.4
scalar VoIPMCoAMulti.Rb.eth[1].mac 	"bits/sec rcvd" 	44.88
scalar VoIPMCoAMulti.Rb.eth[1].mac 	"rx channel idle (%)" 	99.9990208
scalar VoIPMCoAMulti.Rb.eth[1].mac 	"rx channel utilization (%)" 	0.0009792
scalar VoIPMCoAMulti.Rb.eth[1].mac 	"rx channel collision (%)" 	0
scalar VoIPMCoAMulti.Rb.eth[1].mac 	collisions 	0
scalar VoIPMCoAMulti.Rb.eth[1].mac 	backoffs 	0
scalar VoIPMCoAMulti.Rb.eth[1].encap 	"packets from higher layer" 	13
scalar VoIPMCoAMulti.Rb.eth[1].encap 	"frames from MAC" 	14
