version 2
run MCoA_ALL-0-20150316-14:19:50-16121
attr configname MCoA_ALL
attr datetime 20150316-14:19:50
attr experiment MCoA_ALL
attr inifile VoIPMCoACN.ini
attr iterationvars ""
attr iterationvars2 $repetition=0
attr measurement ""
attr network VoIPMCoAMulti
attr processid 16121
attr repetition 0
attr replication #0
attr resultdir results
attr runnumber 0
attr seedset 0

scalar VoIPMCoAMulti.Ra.networkLayer.ipv6 	IPv6_numDropNonActive 	0
scalar VoIPMCoAMulti.Ra.networkLayer.ipv6 	IPv6_Forwarded 	725
scalar VoIPMCoAMulti.Ra.eth[0].queue 	"packets received by queue" 	68
scalar VoIPMCoAMulti.Ra.eth[0].queue 	"packets dropped by queue" 	0
scalar VoIPMCoAMulti.Ra.eth[0].mac 	"simulated time" 	200
scalar VoIPMCoAMulti.Ra.eth[0].mac 	"txrate (Mb)" 	10
scalar VoIPMCoAMulti.Ra.eth[0].mac 	"full duplex" 	1
scalar VoIPMCoAMulti.Ra.eth[0].mac 	"frames sent" 	68
scalar VoIPMCoAMulti.Ra.eth[0].mac 	"frames rcvd" 	31
scalar VoIPMCoAMulti.Ra.eth[0].mac 	"bytes sent" 	19244
scalar VoIPMCoAMulti.Ra.eth[0].mac 	"bytes rcvd" 	3444
scalar VoIPMCoAMulti.Ra.eth[0].mac 	"frames from higher layer" 	68
scalar VoIPMCoAMulti.Ra.eth[0].mac 	"frames from higher layer dropped (iface down)" 	0
scalar VoIPMCoAMulti.Ra.eth[0].mac 	"frames dropped (bit error)" 	0
scalar VoIPMCoAMulti.Ra.eth[0].mac 	"frames dropped (not for us)" 	0
scalar VoIPMCoAMulti.Ra.eth[0].mac 	"frames passed up to HL" 	31
scalar VoIPMCoAMulti.Ra.eth[0].mac 	"PAUSE frames sent" 	0
scalar VoIPMCoAMulti.Ra.eth[0].mac 	"PAUSE frames rcvd" 	0
scalar VoIPMCoAMulti.Ra.eth[0].mac 	"frames/sec sent" 	0.34
scalar VoIPMCoAMulti.Ra.eth[0].mac 	"frames/sec rcvd" 	0.155
scalar VoIPMCoAMulti.Ra.eth[0].mac 	"bits/sec sent" 	769.76
scalar VoIPMCoAMulti.Ra.eth[0].mac 	"bits/sec rcvd" 	137.76
scalar VoIPMCoAMulti.Ra.eth[0].mac 	"rx channel idle (%)" 	99.9985232
scalar VoIPMCoAMulti.Ra.eth[0].mac 	"rx channel utilization (%)" 	0.0014768
scalar VoIPMCoAMulti.Ra.eth[0].mac 	"rx channel collision (%)" 	0
scalar VoIPMCoAMulti.Ra.eth[0].mac 	collisions 	0
scalar VoIPMCoAMulti.Ra.eth[0].mac 	backoffs 	0
scalar VoIPMCoAMulti.Ra.eth[0].encap 	"packets from higher layer" 	68
scalar VoIPMCoAMulti.Ra.eth[0].encap 	"frames from MAC" 	31
scalar VoIPMCoAMulti.Ra.eth[1].queue 	"packets received by queue" 	540
scalar VoIPMCoAMulti.Ra.eth[1].queue 	"packets dropped by queue" 	0
scalar VoIPMCoAMulti.Ra.eth[1].mac 	"simulated time" 	200
scalar VoIPMCoAMulti.Ra.eth[1].mac 	"txrate (Mb)" 	10
scalar VoIPMCoAMulti.Ra.eth[1].mac 	"full duplex" 	1
scalar VoIPMCoAMulti.Ra.eth[1].mac 	"frames sent" 	540
scalar VoIPMCoAMulti.Ra.eth[1].mac 	"frames rcvd" 	110
scalar VoIPMCoAMulti.Ra.eth[1].mac 	"bytes sent" 	138462
scalar VoIPMCoAMulti.Ra.eth[1].mac 	"bytes rcvd" 	17160
scalar VoIPMCoAMulti.Ra.eth[1].mac 	"frames from higher layer" 	540
scalar VoIPMCoAMulti.Ra.eth[1].mac 	"frames from higher layer dropped (iface down)" 	0
scalar VoIPMCoAMulti.Ra.eth[1].mac 	"frames dropped (bit error)" 	0
scalar VoIPMCoAMulti.Ra.eth[1].mac 	"frames dropped (not for us)" 	0
scalar VoIPMCoAMulti.Ra.eth[1].mac 	"frames passed up to HL" 	110
scalar VoIPMCoAMulti.Ra.eth[1].mac 	"PAUSE frames sent" 	0
scalar VoIPMCoAMulti.Ra.eth[1].mac 	"PAUSE frames rcvd" 	0
scalar VoIPMCoAMulti.Ra.eth[1].mac 	"frames/sec sent" 	2.7
scalar VoIPMCoAMulti.Ra.eth[1].mac 	"frames/sec rcvd" 	0.55
scalar VoIPMCoAMulti.Ra.eth[1].mac 	"bits/sec sent" 	5538.48
scalar VoIPMCoAMulti.Ra.eth[1].mac 	"bits/sec rcvd" 	686.4
scalar VoIPMCoAMulti.Ra.eth[1].mac 	"rx channel idle (%)" 	99.992784
scalar VoIPMCoAMulti.Ra.eth[1].mac 	"rx channel utilization (%)" 	0.007216
scalar VoIPMCoAMulti.Ra.eth[1].mac 	"rx channel collision (%)" 	0
scalar VoIPMCoAMulti.Ra.eth[1].mac 	collisions 	0
scalar VoIPMCoAMulti.Ra.eth[1].mac 	backoffs 	0
scalar VoIPMCoAMulti.Ra.eth[1].encap 	"packets from higher layer" 	540
scalar VoIPMCoAMulti.Ra.eth[1].encap 	"frames from MAC" 	110
scalar VoIPMCoAMulti.Ra.eth[2].queue 	"packets received by queue" 	117
scalar VoIPMCoAMulti.Ra.eth[2].queue 	"packets dropped by queue" 	0
scalar VoIPMCoAMulti.Ra.eth[2].mac 	"simulated time" 	200
scalar VoIPMCoAMulti.Ra.eth[2].mac 	"txrate (Mb)" 	10
scalar VoIPMCoAMulti.Ra.eth[2].mac 	"full duplex" 	1
scalar VoIPMCoAMulti.Ra.eth[2].mac 	"frames sent" 	117
scalar VoIPMCoAMulti.Ra.eth[2].mac 	"frames rcvd" 	584
scalar VoIPMCoAMulti.Ra.eth[2].mac 	"bytes sent" 	18118
scalar VoIPMCoAMulti.Ra.eth[2].mac 	"bytes rcvd" 	155220
scalar VoIPMCoAMulti.Ra.eth[2].mac 	"frames from higher layer" 	117
scalar VoIPMCoAMulti.Ra.eth[2].mac 	"frames from higher layer dropped (iface down)" 	0
scalar VoIPMCoAMulti.Ra.eth[2].mac 	"frames dropped (bit error)" 	0
scalar VoIPMCoAMulti.Ra.eth[2].mac 	"frames dropped (not for us)" 	0
scalar VoIPMCoAMulti.Ra.eth[2].mac 	"frames passed up to HL" 	584
scalar VoIPMCoAMulti.Ra.eth[2].mac 	"PAUSE frames sent" 	0
scalar VoIPMCoAMulti.Ra.eth[2].mac 	"PAUSE frames rcvd" 	0
scalar VoIPMCoAMulti.Ra.eth[2].mac 	"frames/sec sent" 	0.585
scalar VoIPMCoAMulti.Ra.eth[2].mac 	"frames/sec rcvd" 	2.92
scalar VoIPMCoAMulti.Ra.eth[2].mac 	"bits/sec sent" 	724.72
scalar VoIPMCoAMulti.Ra.eth[2].mac 	"bits/sec rcvd" 	6208.8
scalar VoIPMCoAMulti.Ra.eth[2].mac 	"rx channel idle (%)" 	99.9360432
scalar VoIPMCoAMulti.Ra.eth[2].mac 	"rx channel utilization (%)" 	0.0639568
scalar VoIPMCoAMulti.Ra.eth[2].mac 	"rx channel collision (%)" 	0
scalar VoIPMCoAMulti.Ra.eth[2].mac 	collisions 	0
scalar VoIPMCoAMulti.Ra.eth[2].mac 	backoffs 	0
scalar VoIPMCoAMulti.Ra.eth[2].encap 	"packets from higher layer" 	117
scalar VoIPMCoAMulti.Ra.eth[2].encap 	"frames from MAC" 	584
scalar VoIPMCoAMulti.CN[0].pingApp 	"Pings sent" 	185
scalar VoIPMCoAMulti.CN[0].pingApp 	"Pings dropped" 	143
scalar VoIPMCoAMulti.CN[0].pingApp 	"Out-of-order ping arrivals" 	0
scalar VoIPMCoAMulti.CN[0].pingApp 	"Pings outstanding at end" 	21
scalar VoIPMCoAMulti.CN[0].pingApp 	"Ping drop rate (%)" 	77.297297297297
scalar VoIPMCoAMulti.CN[0].pingApp 	"Ping out-of-order rate (%)" 	0
statistic VoIPMCoAMulti.CN[0].pingApp 	"Ping roundtrip delays"
field count 21
field mean 0.12841733882486
field stddev 0.022319303735946
field sum 2.696764115322
field sqrsum 0.35627429751317
field min 0.121694350699
field max 0.225639615758
scalar VoIPMCoAMulti.CN[0].networkLayer.ipv6 	IPv6_numDropNonActive 	0
scalar VoIPMCoAMulti.CN[0].networkLayer.ipv6 	IPv6_Forwarded 	594
scalar VoIPMCoAMulti.CN[0].eth[0].queue 	"packets received by queue" 	594
scalar VoIPMCoAMulti.CN[0].eth[0].queue 	"packets dropped by queue" 	0
scalar VoIPMCoAMulti.CN[0].eth[0].mac 	"simulated time" 	200
scalar VoIPMCoAMulti.CN[0].eth[0].mac 	"txrate (Mb)" 	10
scalar VoIPMCoAMulti.CN[0].eth[0].mac 	"full duplex" 	0
scalar VoIPMCoAMulti.CN[0].eth[0].mac 	"frames sent" 	594
scalar VoIPMCoAMulti.CN[0].eth[0].mac 	"frames rcvd" 	121
scalar VoIPMCoAMulti.CN[0].eth[0].mac 	"bytes sent" 	156558
scalar VoIPMCoAMulti.CN[0].eth[0].mac 	"bytes rcvd" 	18374
scalar VoIPMCoAMulti.CN[0].eth[0].mac 	"frames from higher layer" 	594
scalar VoIPMCoAMulti.CN[0].eth[0].mac 	"frames from higher layer dropped (iface down)" 	0
scalar VoIPMCoAMulti.CN[0].eth[0].mac 	"frames dropped (bit error)" 	0
scalar VoIPMCoAMulti.CN[0].eth[0].mac 	"frames dropped (not for us)" 	0
scalar VoIPMCoAMulti.CN[0].eth[0].mac 	"frames passed up to HL" 	121
scalar VoIPMCoAMulti.CN[0].eth[0].mac 	"PAUSE frames sent" 	0
scalar VoIPMCoAMulti.CN[0].eth[0].mac 	"PAUSE frames rcvd" 	0
scalar VoIPMCoAMulti.CN[0].eth[0].mac 	"frames/sec sent" 	2.97
scalar VoIPMCoAMulti.CN[0].eth[0].mac 	"frames/sec rcvd" 	0.605
scalar VoIPMCoAMulti.CN[0].eth[0].mac 	"bits/sec sent" 	6262.32
scalar VoIPMCoAMulti.CN[0].eth[0].mac 	"bits/sec rcvd" 	734.96
scalar VoIPMCoAMulti.CN[0].eth[0].mac 	"rx channel idle (%)" 	99.9277312
scalar VoIPMCoAMulti.CN[0].eth[0].mac 	"rx channel utilization (%)" 	0.0722608
scalar VoIPMCoAMulti.CN[0].eth[0].mac 	"rx channel collision (%)" 	8e-06
scalar VoIPMCoAMulti.CN[0].eth[0].mac 	collisions 	5
scalar VoIPMCoAMulti.CN[0].eth[0].mac 	backoffs 	0
scalar VoIPMCoAMulti.CN[0].eth[0].encap 	"packets from higher layer" 	594
scalar VoIPMCoAMulti.CN[0].eth[0].encap 	"frames from MAC" 	121
scalar VoIPMCoAMulti.hub 	"simulated time" 	200
scalar VoIPMCoAMulti.hub 	"messages handled" 	727
scalar VoIPMCoAMulti.hub 	messages/sec 	3.635
scalar VoIPMCoAMulti.HA.pingApp 	"Pings sent" 	0
scalar VoIPMCoAMulti.HA.networkLayer.ipv6 	IPv6_numDropNonActive 	102
scalar VoIPMCoAMulti.HA.networkLayer.ipv6 	IPv6_Forwarded 	3988
scalar VoIPMCoAMulti.HA.eth[0].queue 	"packets received by queue" 	31
scalar VoIPMCoAMulti.HA.eth[0].queue 	"packets dropped by queue" 	0
scalar VoIPMCoAMulti.HA.eth[0].mac 	"simulated time" 	200
scalar VoIPMCoAMulti.HA.eth[0].mac 	"txrate (Mb)" 	10
scalar VoIPMCoAMulti.HA.eth[0].mac 	"full duplex" 	1
scalar VoIPMCoAMulti.HA.eth[0].mac 	"frames sent" 	31
scalar VoIPMCoAMulti.HA.eth[0].mac 	"frames rcvd" 	68
scalar VoIPMCoAMulti.HA.eth[0].mac 	"bytes sent" 	3444
scalar VoIPMCoAMulti.HA.eth[0].mac 	"bytes rcvd" 	19244
scalar VoIPMCoAMulti.HA.eth[0].mac 	"frames from higher layer" 	31
scalar VoIPMCoAMulti.HA.eth[0].mac 	"frames from higher layer dropped (iface down)" 	0
scalar VoIPMCoAMulti.HA.eth[0].mac 	"frames dropped (bit error)" 	0
scalar VoIPMCoAMulti.HA.eth[0].mac 	"frames dropped (not for us)" 	0
scalar VoIPMCoAMulti.HA.eth[0].mac 	"frames passed up to HL" 	68
scalar VoIPMCoAMulti.HA.eth[0].mac 	"PAUSE frames sent" 	0
scalar VoIPMCoAMulti.HA.eth[0].mac 	"PAUSE frames rcvd" 	0
scalar VoIPMCoAMulti.HA.eth[0].mac 	"frames/sec sent" 	0.155
scalar VoIPMCoAMulti.HA.eth[0].mac 	"frames/sec rcvd" 	0.34
scalar VoIPMCoAMulti.HA.eth[0].mac 	"bits/sec sent" 	137.76
scalar VoIPMCoAMulti.HA.eth[0].mac 	"bits/sec rcvd" 	769.76
scalar VoIPMCoAMulti.HA.eth[0].mac 	"rx channel idle (%)" 	99.9920848
scalar VoIPMCoAMulti.HA.eth[0].mac 	"rx channel utilization (%)" 	0.0079152
scalar VoIPMCoAMulti.HA.eth[0].mac 	"rx channel collision (%)" 	0
scalar VoIPMCoAMulti.HA.eth[0].mac 	collisions 	0
scalar VoIPMCoAMulti.HA.eth[0].mac 	backoffs 	0
scalar VoIPMCoAMulti.HA.eth[0].encap 	"packets from higher layer" 	31
scalar VoIPMCoAMulti.HA.eth[0].encap 	"frames from MAC" 	68
scalar VoIPMCoAMulti.HA.eth[1].queue 	"packets received by queue" 	3957
scalar VoIPMCoAMulti.HA.eth[1].queue 	"packets dropped by queue" 	0
scalar VoIPMCoAMulti.HA.eth[1].mac 	"simulated time" 	200
scalar VoIPMCoAMulti.HA.eth[1].mac 	"txrate (Mb)" 	10
scalar VoIPMCoAMulti.HA.eth[1].mac 	"full duplex" 	1
scalar VoIPMCoAMulti.HA.eth[1].mac 	"frames sent" 	3957
scalar VoIPMCoAMulti.HA.eth[1].mac 	"frames rcvd" 	24
scalar VoIPMCoAMulti.HA.eth[1].mac 	"bytes sent" 	267640
scalar VoIPMCoAMulti.HA.eth[1].mac 	"bytes rcvd" 	2080
scalar VoIPMCoAMulti.HA.eth[1].mac 	"frames from higher layer" 	3957
scalar VoIPMCoAMulti.HA.eth[1].mac 	"frames from higher layer dropped (iface down)" 	0
scalar VoIPMCoAMulti.HA.eth[1].mac 	"frames dropped (bit error)" 	0
scalar VoIPMCoAMulti.HA.eth[1].mac 	"frames dropped (not for us)" 	0
scalar VoIPMCoAMulti.HA.eth[1].mac 	"frames passed up to HL" 	24
scalar VoIPMCoAMulti.HA.eth[1].mac 	"PAUSE frames sent" 	0
scalar VoIPMCoAMulti.HA.eth[1].mac 	"PAUSE frames rcvd" 	0
scalar VoIPMCoAMulti.HA.eth[1].mac 	"frames/sec sent" 	19.785
scalar VoIPMCoAMulti.HA.eth[1].mac 	"frames/sec rcvd" 	0.12
scalar VoIPMCoAMulti.HA.eth[1].mac 	"bits/sec sent" 	10705.6
scalar VoIPMCoAMulti.HA.eth[1].mac 	"bits/sec rcvd" 	83.2
scalar VoIPMCoAMulti.HA.eth[1].mac 	"rx channel idle (%)" 	99.9990912
scalar VoIPMCoAMulti.HA.eth[1].mac 	"rx channel utilization (%)" 	0.0009088
scalar VoIPMCoAMulti.HA.eth[1].mac 	"rx channel collision (%)" 	0
scalar VoIPMCoAMulti.HA.eth[1].mac 	collisions 	0
scalar VoIPMCoAMulti.HA.eth[1].mac 	backoffs 	0
scalar VoIPMCoAMulti.HA.eth[1].encap 	"packets from higher layer" 	3957
scalar VoIPMCoAMulti.HA.eth[1].encap 	"frames from MAC" 	24
scalar VoIPMCoAMulti.AP_HA.wlan.mgmt 	"packets received by queue" 	5976
scalar VoIPMCoAMulti.AP_HA.wlan.mgmt 	"packets dropped by queue" 	0
scalar VoIPMCoAMulti.AP_HA.wlan.mac 	numSent 	67
scalar VoIPMCoAMulti.AP_HA.wlan.mac 	numSentWithoutRetry 	67
scalar VoIPMCoAMulti.AP_HA.wlan.mac 	numReceived 	35
scalar VoIPMCoAMulti.AP_HA.wlan.mac 	numSentBroadcast 	5906
scalar VoIPMCoAMulti.AP_HA.wlan.mac 	numReceivedBroadcast 	3
scalar VoIPMCoAMulti.AP_HA.wlan.mac 	numReceivedOther 	0
scalar VoIPMCoAMulti.AP_HA.wlan.mac 	numCollision 	2
scalar VoIPMCoAMulti.AP_HA.wlan.mac 	numGivenUp 	3
scalar VoIPMCoAMulti.AP_HA.wlan.mac 	numAckSend 	35
scalar VoIPMCoAMulti.AP_HA.wlan.mac 	numRetry 	18
scalar VoIPMCoAMulti.MN[0].pingApp 	"Pings sent" 	0
scalar VoIPMCoAMulti.MN[0].networkLayer.ipv6 	IPv6_numDropNonActive 	0
scalar VoIPMCoAMulti.MN[0].networkLayer.ipv6 	IPv6_Forwarded 	112
scalar VoIPMCoAMulti.MN[0].wlan[0].mgmt 	"packets received by queue" 	560
scalar VoIPMCoAMulti.MN[0].wlan[0].mgmt 	"packets dropped by queue" 	0
scalar VoIPMCoAMulti.MN[0].wlan[0].mac 	numSent 	29
scalar VoIPMCoAMulti.MN[0].wlan[0].mac 	numSentWithoutRetry 	27
scalar VoIPMCoAMulti.MN[0].wlan[0].mac 	numReceived 	63
scalar VoIPMCoAMulti.MN[0].wlan[0].mac 	numSentBroadcast 	531
scalar VoIPMCoAMulti.MN[0].wlan[0].mac 	numReceivedBroadcast 	1927
scalar VoIPMCoAMulti.MN[0].wlan[0].mac 	numReceivedOther 	6
scalar VoIPMCoAMulti.MN[0].wlan[0].mac 	numCollision 	0
scalar VoIPMCoAMulti.MN[0].wlan[0].mac 	numGivenUp 	0
scalar VoIPMCoAMulti.MN[0].wlan[0].mac 	numAckSend 	63
scalar VoIPMCoAMulti.MN[0].wlan[0].mac 	numRetry 	2
scalar VoIPMCoAMulti.MN[0].wlan[1].mgmt 	"packets received by queue" 	429
scalar VoIPMCoAMulti.MN[0].wlan[1].mgmt 	"packets dropped by queue" 	0
scalar VoIPMCoAMulti.MN[0].wlan[1].mac 	numSent 	25
scalar VoIPMCoAMulti.MN[0].wlan[1].mac 	numSentWithoutRetry 	25
scalar VoIPMCoAMulti.MN[0].wlan[1].mac 	numReceived 	216
scalar VoIPMCoAMulti.MN[0].wlan[1].mac 	numSentBroadcast 	404
scalar VoIPMCoAMulti.MN[0].wlan[1].mac 	numReceivedBroadcast 	2642
scalar VoIPMCoAMulti.MN[0].wlan[1].mac 	numReceivedOther 	0
scalar VoIPMCoAMulti.MN[0].wlan[1].mac 	numCollision 	0
scalar VoIPMCoAMulti.MN[0].wlan[1].mac 	numGivenUp 	0
scalar VoIPMCoAMulti.MN[0].wlan[1].mac 	numAckSend 	216
scalar VoIPMCoAMulti.MN[0].wlan[1].mac 	numRetry 	0
scalar VoIPMCoAMulti.MN[0].wlan[2].mgmt 	"packets received by queue" 	588
scalar VoIPMCoAMulti.MN[0].wlan[2].mgmt 	"packets dropped by queue" 	0
scalar VoIPMCoAMulti.MN[0].wlan[2].mac 	numSent 	19
scalar VoIPMCoAMulti.MN[0].wlan[2].mac 	numSentWithoutRetry 	19
scalar VoIPMCoAMulti.MN[0].wlan[2].mac 	numReceived 	96
scalar VoIPMCoAMulti.MN[0].wlan[2].mac 	numSentBroadcast 	569
scalar VoIPMCoAMulti.MN[0].wlan[2].mac 	numReceivedBroadcast 	1571
scalar VoIPMCoAMulti.MN[0].wlan[2].mac 	numReceivedOther 	0
scalar VoIPMCoAMulti.MN[0].wlan[2].mac 	numCollision 	0
scalar VoIPMCoAMulti.MN[0].wlan[2].mac 	numGivenUp 	0
scalar VoIPMCoAMulti.MN[0].wlan[2].mac 	numAckSend 	96
scalar VoIPMCoAMulti.MN[0].wlan[2].mac 	numRetry 	0
scalar VoIPMCoAMulti.MN[1].pingApp 	"Pings sent" 	0
scalar VoIPMCoAMulti.MN[1].networkLayer.ipv6 	IPv6_numDropNonActive 	0
scalar VoIPMCoAMulti.MN[1].networkLayer.ipv6 	IPv6_Forwarded 	6
scalar VoIPMCoAMulti.MN[1].wlan[0].mgmt 	"packets received by queue" 	7
scalar VoIPMCoAMulti.MN[1].wlan[0].mgmt 	"packets dropped by queue" 	0
scalar VoIPMCoAMulti.MN[1].wlan[0].mac 	numSent 	6
scalar VoIPMCoAMulti.MN[1].wlan[0].mac 	numSentWithoutRetry 	6
scalar VoIPMCoAMulti.MN[1].wlan[0].mac 	numReceived 	4
scalar VoIPMCoAMulti.MN[1].wlan[0].mac 	numSentBroadcast 	1
scalar VoIPMCoAMulti.MN[1].wlan[0].mac 	numReceivedBroadcast 	5922
scalar VoIPMCoAMulti.MN[1].wlan[0].mac 	numReceivedOther 	205
scalar VoIPMCoAMulti.MN[1].wlan[0].mac 	numCollision 	0
scalar VoIPMCoAMulti.MN[1].wlan[0].mac 	numGivenUp 	0
scalar VoIPMCoAMulti.MN[1].wlan[0].mac 	numAckSend 	4
scalar VoIPMCoAMulti.MN[1].wlan[0].mac 	numRetry 	2
scalar VoIPMCoAMulti.R1.networkLayer.ipv6 	IPv6_numDropNonActive 	494
scalar VoIPMCoAMulti.R1.networkLayer.ipv6 	IPv6_Forwarded 	8168
scalar VoIPMCoAMulti.R1.eth[0].queue 	"packets received by queue" 	110
scalar VoIPMCoAMulti.R1.eth[0].queue 	"packets dropped by queue" 	0
scalar VoIPMCoAMulti.R1.eth[0].mac 	"simulated time" 	200
scalar VoIPMCoAMulti.R1.eth[0].mac 	"txrate (Mb)" 	10
scalar VoIPMCoAMulti.R1.eth[0].mac 	"full duplex" 	1
scalar VoIPMCoAMulti.R1.eth[0].mac 	"frames sent" 	110
scalar VoIPMCoAMulti.R1.eth[0].mac 	"frames rcvd" 	540
scalar VoIPMCoAMulti.R1.eth[0].mac 	"bytes sent" 	17160
scalar VoIPMCoAMulti.R1.eth[0].mac 	"bytes rcvd" 	138462
scalar VoIPMCoAMulti.R1.eth[0].mac 	"frames from higher layer" 	110
scalar VoIPMCoAMulti.R1.eth[0].mac 	"frames from higher layer dropped (iface down)" 	0
scalar VoIPMCoAMulti.R1.eth[0].mac 	"frames dropped (bit error)" 	0
scalar VoIPMCoAMulti.R1.eth[0].mac 	"frames dropped (not for us)" 	0
scalar VoIPMCoAMulti.R1.eth[0].mac 	"frames passed up to HL" 	540
scalar VoIPMCoAMulti.R1.eth[0].mac 	"PAUSE frames sent" 	0
scalar VoIPMCoAMulti.R1.eth[0].mac 	"PAUSE frames rcvd" 	0
scalar VoIPMCoAMulti.R1.eth[0].mac 	"frames/sec sent" 	0.55
scalar VoIPMCoAMulti.R1.eth[0].mac 	"frames/sec rcvd" 	2.7
scalar VoIPMCoAMulti.R1.eth[0].mac 	"bits/sec sent" 	686.4
scalar VoIPMCoAMulti.R1.eth[0].mac 	"bits/sec rcvd" 	5538.48
scalar VoIPMCoAMulti.R1.eth[0].mac 	"rx channel idle (%)" 	99.9428872
scalar VoIPMCoAMulti.R1.eth[0].mac 	"rx channel utilization (%)" 	0.0571128
scalar VoIPMCoAMulti.R1.eth[0].mac 	"rx channel collision (%)" 	0
scalar VoIPMCoAMulti.R1.eth[0].mac 	collisions 	0
scalar VoIPMCoAMulti.R1.eth[0].mac 	backoffs 	0
scalar VoIPMCoAMulti.R1.eth[0].encap 	"packets from higher layer" 	110
scalar VoIPMCoAMulti.R1.eth[0].encap 	"frames from MAC" 	540
scalar VoIPMCoAMulti.R1.eth[1].queue 	"packets received by queue" 	4004
scalar VoIPMCoAMulti.R1.eth[1].queue 	"packets dropped by queue" 	0
scalar VoIPMCoAMulti.R1.eth[1].mac 	"simulated time" 	200
scalar VoIPMCoAMulti.R1.eth[1].mac 	"txrate (Mb)" 	10
scalar VoIPMCoAMulti.R1.eth[1].mac 	"full duplex" 	1
scalar VoIPMCoAMulti.R1.eth[1].mac 	"frames sent" 	4004
scalar VoIPMCoAMulti.R1.eth[1].mac 	"frames rcvd" 	17
scalar VoIPMCoAMulti.R1.eth[1].mac 	"bytes sent" 	305460
scalar VoIPMCoAMulti.R1.eth[1].mac 	"bytes rcvd" 	1492
scalar VoIPMCoAMulti.R1.eth[1].mac 	"frames from higher layer" 	4004
scalar VoIPMCoAMulti.R1.eth[1].mac 	"frames from higher layer dropped (iface down)" 	0
scalar VoIPMCoAMulti.R1.eth[1].mac 	"frames dropped (bit error)" 	0
scalar VoIPMCoAMulti.R1.eth[1].mac 	"frames dropped (not for us)" 	0
scalar VoIPMCoAMulti.R1.eth[1].mac 	"frames passed up to HL" 	17
scalar VoIPMCoAMulti.R1.eth[1].mac 	"PAUSE frames sent" 	0
scalar VoIPMCoAMulti.R1.eth[1].mac 	"PAUSE frames rcvd" 	0
scalar VoIPMCoAMulti.R1.eth[1].mac 	"frames/sec sent" 	20.02
scalar VoIPMCoAMulti.R1.eth[1].mac 	"frames/sec rcvd" 	0.085
scalar VoIPMCoAMulti.R1.eth[1].mac 	"bits/sec sent" 	12218.4
scalar VoIPMCoAMulti.R1.eth[1].mac 	"bits/sec rcvd" 	59.68
scalar VoIPMCoAMulti.R1.eth[1].mac 	"rx channel idle (%)" 	99.9993488
scalar VoIPMCoAMulti.R1.eth[1].mac 	"rx channel utilization (%)" 	0.0006512
scalar VoIPMCoAMulti.R1.eth[1].mac 	"rx channel collision (%)" 	0
scalar VoIPMCoAMulti.R1.eth[1].mac 	collisions 	0
scalar VoIPMCoAMulti.R1.eth[1].mac 	backoffs 	0
scalar VoIPMCoAMulti.R1.eth[1].encap 	"packets from higher layer" 	4004
scalar VoIPMCoAMulti.R1.eth[1].encap 	"frames from MAC" 	17
scalar VoIPMCoAMulti.R1.eth[2].queue 	"packets received by queue" 	4054
scalar VoIPMCoAMulti.R1.eth[2].queue 	"packets dropped by queue" 	0
scalar VoIPMCoAMulti.R1.eth[2].mac 	"simulated time" 	200
scalar VoIPMCoAMulti.R1.eth[2].mac 	"txrate (Mb)" 	10
scalar VoIPMCoAMulti.R1.eth[2].mac 	"full duplex" 	1
scalar VoIPMCoAMulti.R1.eth[2].mac 	"frames sent" 	4054
scalar VoIPMCoAMulti.R1.eth[2].mac 	"frames rcvd" 	11
scalar VoIPMCoAMulti.R1.eth[2].mac 	"bytes sent" 	283388
scalar VoIPMCoAMulti.R1.eth[2].mac 	"bytes rcvd" 	862
scalar VoIPMCoAMulti.R1.eth[2].mac 	"frames from higher layer" 	4054
scalar VoIPMCoAMulti.R1.eth[2].mac 	"frames from higher layer dropped (iface down)" 	0
scalar VoIPMCoAMulti.R1.eth[2].mac 	"frames dropped (bit error)" 	0
scalar VoIPMCoAMulti.R1.eth[2].mac 	"frames dropped (not for us)" 	0
scalar VoIPMCoAMulti.R1.eth[2].mac 	"frames passed up to HL" 	11
scalar VoIPMCoAMulti.R1.eth[2].mac 	"PAUSE frames sent" 	0
scalar VoIPMCoAMulti.R1.eth[2].mac 	"PAUSE frames rcvd" 	0
scalar VoIPMCoAMulti.R1.eth[2].mac 	"frames/sec sent" 	20.27
scalar VoIPMCoAMulti.R1.eth[2].mac 	"frames/sec rcvd" 	0.055
scalar VoIPMCoAMulti.R1.eth[2].mac 	"bits/sec sent" 	11335.52
scalar VoIPMCoAMulti.R1.eth[2].mac 	"bits/sec rcvd" 	34.48
scalar VoIPMCoAMulti.R1.eth[2].mac 	"rx channel idle (%)" 	99.99962
scalar VoIPMCoAMulti.R1.eth[2].mac 	"rx channel utilization (%)" 	0.00038
scalar VoIPMCoAMulti.R1.eth[2].mac 	"rx channel collision (%)" 	0
scalar VoIPMCoAMulti.R1.eth[2].mac 	collisions 	0
scalar VoIPMCoAMulti.R1.eth[2].mac 	backoffs 	0
scalar VoIPMCoAMulti.R1.eth[2].encap 	"packets from higher layer" 	4054
scalar VoIPMCoAMulti.R1.eth[2].encap 	"frames from MAC" 	11
scalar VoIPMCoAMulti.AP_1.wlan.mgmt 	"packets received by queue" 	6019
scalar VoIPMCoAMulti.AP_1.wlan.mgmt 	"packets dropped by queue" 	0
scalar VoIPMCoAMulti.AP_1.wlan.mac 	numSent 	216
scalar VoIPMCoAMulti.AP_1.wlan.mac 	numSentWithoutRetry 	216
scalar VoIPMCoAMulti.AP_1.wlan.mac 	numReceived 	25
scalar VoIPMCoAMulti.AP_1.wlan.mac 	numSentBroadcast 	5800
scalar VoIPMCoAMulti.AP_1.wlan.mac 	numReceivedBroadcast 	2
scalar VoIPMCoAMulti.AP_1.wlan.mac 	numReceivedOther 	0
scalar VoIPMCoAMulti.AP_1.wlan.mac 	numCollision 	0
scalar VoIPMCoAMulti.AP_1.wlan.mac 	numGivenUp 	3
scalar VoIPMCoAMulti.AP_1.wlan.mac 	numAckSend 	25
scalar VoIPMCoAMulti.AP_1.wlan.mac 	numRetry 	18
scalar VoIPMCoAMulti.AP_2.wlan.mgmt 	"packets received by queue" 	6070
scalar VoIPMCoAMulti.AP_2.wlan.mgmt 	"packets dropped by queue" 	0
scalar VoIPMCoAMulti.AP_2.wlan.mac 	numSent 	96
scalar VoIPMCoAMulti.AP_2.wlan.mac 	numSentWithoutRetry 	96
scalar VoIPMCoAMulti.AP_2.wlan.mac 	numReceived 	19
scalar VoIPMCoAMulti.AP_2.wlan.mac 	numSentBroadcast 	5909
scalar VoIPMCoAMulti.AP_2.wlan.mac 	numReceivedBroadcast 	3
scalar VoIPMCoAMulti.AP_2.wlan.mac 	numReceivedOther 	0
scalar VoIPMCoAMulti.AP_2.wlan.mac 	numCollision 	0
scalar VoIPMCoAMulti.AP_2.wlan.mac 	numGivenUp 	65
scalar VoIPMCoAMulti.AP_2.wlan.mac 	numAckSend 	19
scalar VoIPMCoAMulti.AP_2.wlan.mac 	numRetry 	390
scalar VoIPMCoAMulti.Rb.networkLayer.ipv6 	IPv6_numDropNonActive 	0
scalar VoIPMCoAMulti.Rb.networkLayer.ipv6 	IPv6_Forwarded 	705
scalar VoIPMCoAMulti.Rb.eth[0].queue 	"packets received by queue" 	584
scalar VoIPMCoAMulti.Rb.eth[0].queue 	"packets dropped by queue" 	0
scalar VoIPMCoAMulti.Rb.eth[0].mac 	"simulated time" 	200
scalar VoIPMCoAMulti.Rb.eth[0].mac 	"txrate (Mb)" 	10
scalar VoIPMCoAMulti.Rb.eth[0].mac 	"full duplex" 	1
scalar VoIPMCoAMulti.Rb.eth[0].mac 	"frames sent" 	584
scalar VoIPMCoAMulti.Rb.eth[0].mac 	"frames rcvd" 	117
scalar VoIPMCoAMulti.Rb.eth[0].mac 	"bytes sent" 	155220
scalar VoIPMCoAMulti.Rb.eth[0].mac 	"bytes rcvd" 	18118
scalar VoIPMCoAMulti.Rb.eth[0].mac 	"frames from higher layer" 	584
scalar VoIPMCoAMulti.Rb.eth[0].mac 	"frames from higher layer dropped (iface down)" 	0
scalar VoIPMCoAMulti.Rb.eth[0].mac 	"frames dropped (bit error)" 	0
scalar VoIPMCoAMulti.Rb.eth[0].mac 	"frames dropped (not for us)" 	0
scalar VoIPMCoAMulti.Rb.eth[0].mac 	"frames passed up to HL" 	117
scalar VoIPMCoAMulti.Rb.eth[0].mac 	"PAUSE frames sent" 	0
scalar VoIPMCoAMulti.Rb.eth[0].mac 	"PAUSE frames rcvd" 	0
scalar VoIPMCoAMulti.Rb.eth[0].mac 	"frames/sec sent" 	2.92
scalar VoIPMCoAMulti.Rb.eth[0].mac 	"frames/sec rcvd" 	0.585
scalar VoIPMCoAMulti.Rb.eth[0].mac 	"bits/sec sent" 	6208.8
scalar VoIPMCoAMulti.Rb.eth[0].mac 	"bits/sec rcvd" 	724.72
scalar VoIPMCoAMulti.Rb.eth[0].mac 	"rx channel idle (%)" 	99.9923784
scalar VoIPMCoAMulti.Rb.eth[0].mac 	"rx channel utilization (%)" 	0.0076216
scalar VoIPMCoAMulti.Rb.eth[0].mac 	"rx channel collision (%)" 	0
scalar VoIPMCoAMulti.Rb.eth[0].mac 	collisions 	0
scalar VoIPMCoAMulti.Rb.eth[0].mac 	backoffs 	0
scalar VoIPMCoAMulti.Rb.eth[0].encap 	"packets from higher layer" 	584
scalar VoIPMCoAMulti.Rb.eth[0].encap 	"frames from MAC" 	117
scalar VoIPMCoAMulti.Rb.eth[1].queue 	"packets received by queue" 	121
scalar VoIPMCoAMulti.Rb.eth[1].queue 	"packets dropped by queue" 	0
scalar VoIPMCoAMulti.Rb.eth[1].mac 	"simulated time" 	200
scalar VoIPMCoAMulti.Rb.eth[1].mac 	"txrate (Mb)" 	10
scalar VoIPMCoAMulti.Rb.eth[1].mac 	"full duplex" 	0
scalar VoIPMCoAMulti.Rb.eth[1].mac 	"frames sent" 	121
scalar VoIPMCoAMulti.Rb.eth[1].mac 	"frames rcvd" 	589
scalar VoIPMCoAMulti.Rb.eth[1].mac 	"bytes sent" 	18374
scalar VoIPMCoAMulti.Rb.eth[1].mac 	"bytes rcvd" 	155540
scalar VoIPMCoAMulti.Rb.eth[1].mac 	"frames from higher layer" 	121
scalar VoIPMCoAMulti.Rb.eth[1].mac 	"frames from higher layer dropped (iface down)" 	0
scalar VoIPMCoAMulti.Rb.eth[1].mac 	"frames dropped (bit error)" 	0
scalar VoIPMCoAMulti.Rb.eth[1].mac 	"frames dropped (not for us)" 	0
scalar VoIPMCoAMulti.Rb.eth[1].mac 	"frames passed up to HL" 	589
scalar VoIPMCoAMulti.Rb.eth[1].mac 	"PAUSE frames sent" 	0
scalar VoIPMCoAMulti.Rb.eth[1].mac 	"PAUSE frames rcvd" 	0
scalar VoIPMCoAMulti.Rb.eth[1].mac 	"frames/sec sent" 	0.605
scalar VoIPMCoAMulti.Rb.eth[1].mac 	"frames/sec rcvd" 	2.945
scalar VoIPMCoAMulti.Rb.eth[1].mac 	"bits/sec sent" 	734.96
scalar VoIPMCoAMulti.Rb.eth[1].mac 	"bits/sec rcvd" 	6221.6
scalar VoIPMCoAMulti.Rb.eth[1].mac 	"rx channel idle (%)" 	99.9277392
scalar VoIPMCoAMulti.Rb.eth[1].mac 	"rx channel utilization (%)" 	0.0718376
scalar VoIPMCoAMulti.Rb.eth[1].mac 	"rx channel collision (%)" 	0.0004232
scalar VoIPMCoAMulti.Rb.eth[1].mac 	collisions 	5
scalar VoIPMCoAMulti.Rb.eth[1].mac 	backoffs 	5
scalar VoIPMCoAMulti.Rb.eth[1].encap 	"packets from higher layer" 	121
scalar VoIPMCoAMulti.Rb.eth[1].encap 	"frames from MAC" 	589
