version 2
run MCoA_ALL-0-20150318-23:50:17-20611
attr configname MCoA_ALL
attr datetime 20150318-23:50:17
attr experiment MCoA_ALL
attr inifile VoIPMCoACN.ini
attr iterationvars ""
attr iterationvars2 $repetition=0
attr measurement ""
attr network VoIPMCoAMulti
attr processid 20611
attr repetition 0
attr replication #0
attr resultdir results
attr runnumber 0
attr seedset 0

scalar VoIPMCoAMulti.Ra.networkLayer.ipv6 	IPv6_numDropNonActive 	0
scalar VoIPMCoAMulti.Ra.networkLayer.ipv6 	IPv6_Forwarded 	45
scalar VoIPMCoAMulti.Ra.eth[0].queue 	"packets received by queue" 	17
scalar VoIPMCoAMulti.Ra.eth[0].queue 	"packets dropped by queue" 	0
scalar VoIPMCoAMulti.Ra.eth[0].mac 	"simulated time" 	200
scalar VoIPMCoAMulti.Ra.eth[0].mac 	"txrate (Mb)" 	10
scalar VoIPMCoAMulti.Ra.eth[0].mac 	"full duplex" 	1
scalar VoIPMCoAMulti.Ra.eth[0].mac 	"frames sent" 	17
scalar VoIPMCoAMulti.Ra.eth[0].mac 	"frames rcvd" 	17
scalar VoIPMCoAMulti.Ra.eth[0].mac 	"bytes sent" 	1592
scalar VoIPMCoAMulti.Ra.eth[0].mac 	"bytes rcvd" 	1622
scalar VoIPMCoAMulti.Ra.eth[0].mac 	"frames from higher layer" 	17
scalar VoIPMCoAMulti.Ra.eth[0].mac 	"frames from higher layer dropped (iface down)" 	0
scalar VoIPMCoAMulti.Ra.eth[0].mac 	"frames dropped (bit error)" 	0
scalar VoIPMCoAMulti.Ra.eth[0].mac 	"frames dropped (not for us)" 	0
scalar VoIPMCoAMulti.Ra.eth[0].mac 	"frames passed up to HL" 	17
scalar VoIPMCoAMulti.Ra.eth[0].mac 	"PAUSE frames sent" 	0
scalar VoIPMCoAMulti.Ra.eth[0].mac 	"PAUSE frames rcvd" 	0
scalar VoIPMCoAMulti.Ra.eth[0].mac 	"frames/sec sent" 	0.085
scalar VoIPMCoAMulti.Ra.eth[0].mac 	"frames/sec rcvd" 	0.085
scalar VoIPMCoAMulti.Ra.eth[0].mac 	"bits/sec sent" 	63.68
scalar VoIPMCoAMulti.Ra.eth[0].mac 	"bits/sec rcvd" 	64.88
scalar VoIPMCoAMulti.Ra.eth[0].mac 	"rx channel idle (%)" 	99.9992968
scalar VoIPMCoAMulti.Ra.eth[0].mac 	"rx channel utilization (%)" 	0.0007032
scalar VoIPMCoAMulti.Ra.eth[0].mac 	"rx channel collision (%)" 	0
scalar VoIPMCoAMulti.Ra.eth[0].mac 	collisions 	0
scalar VoIPMCoAMulti.Ra.eth[0].mac 	backoffs 	0
scalar VoIPMCoAMulti.Ra.eth[0].encap 	"packets from higher layer" 	17
scalar VoIPMCoAMulti.Ra.eth[0].encap 	"frames from MAC" 	17
scalar VoIPMCoAMulti.Ra.eth[1].queue 	"packets received by queue" 	17
scalar VoIPMCoAMulti.Ra.eth[1].queue 	"packets dropped by queue" 	0
scalar VoIPMCoAMulti.Ra.eth[1].mac 	"simulated time" 	200
scalar VoIPMCoAMulti.Ra.eth[1].mac 	"txrate (Mb)" 	10
scalar VoIPMCoAMulti.Ra.eth[1].mac 	"full duplex" 	1
scalar VoIPMCoAMulti.Ra.eth[1].mac 	"frames sent" 	17
scalar VoIPMCoAMulti.Ra.eth[1].mac 	"frames rcvd" 	17
scalar VoIPMCoAMulti.Ra.eth[1].mac 	"bytes sent" 	1760
scalar VoIPMCoAMulti.Ra.eth[1].mac 	"bytes rcvd" 	1782
scalar VoIPMCoAMulti.Ra.eth[1].mac 	"frames from higher layer" 	17
scalar VoIPMCoAMulti.Ra.eth[1].mac 	"frames from higher layer dropped (iface down)" 	0
scalar VoIPMCoAMulti.Ra.eth[1].mac 	"frames dropped (bit error)" 	0
scalar VoIPMCoAMulti.Ra.eth[1].mac 	"frames dropped (not for us)" 	0
scalar VoIPMCoAMulti.Ra.eth[1].mac 	"frames passed up to HL" 	17
scalar VoIPMCoAMulti.Ra.eth[1].mac 	"PAUSE frames sent" 	0
scalar VoIPMCoAMulti.Ra.eth[1].mac 	"PAUSE frames rcvd" 	0
scalar VoIPMCoAMulti.Ra.eth[1].mac 	"frames/sec sent" 	0.085
scalar VoIPMCoAMulti.Ra.eth[1].mac 	"frames/sec rcvd" 	0.085
scalar VoIPMCoAMulti.Ra.eth[1].mac 	"bits/sec sent" 	70.4
scalar VoIPMCoAMulti.Ra.eth[1].mac 	"bits/sec rcvd" 	71.28
scalar VoIPMCoAMulti.Ra.eth[1].mac 	"rx channel idle (%)" 	99.9992328
scalar VoIPMCoAMulti.Ra.eth[1].mac 	"rx channel utilization (%)" 	0.0007672
scalar VoIPMCoAMulti.Ra.eth[1].mac 	"rx channel collision (%)" 	0
scalar VoIPMCoAMulti.Ra.eth[1].mac 	collisions 	0
scalar VoIPMCoAMulti.Ra.eth[1].mac 	backoffs 	0
scalar VoIPMCoAMulti.Ra.eth[1].encap 	"packets from higher layer" 	17
scalar VoIPMCoAMulti.Ra.eth[1].encap 	"frames from MAC" 	17
scalar VoIPMCoAMulti.Ra.eth[2].queue 	"packets received by queue" 	11
scalar VoIPMCoAMulti.Ra.eth[2].queue 	"packets dropped by queue" 	0
scalar VoIPMCoAMulti.Ra.eth[2].mac 	"simulated time" 	200
scalar VoIPMCoAMulti.Ra.eth[2].mac 	"txrate (Mb)" 	10
scalar VoIPMCoAMulti.Ra.eth[2].mac 	"full duplex" 	1
scalar VoIPMCoAMulti.Ra.eth[2].mac 	"frames sent" 	11
scalar VoIPMCoAMulti.Ra.eth[2].mac 	"frames rcvd" 	11
scalar VoIPMCoAMulti.Ra.eth[2].mac 	"bytes sent" 	982
scalar VoIPMCoAMulti.Ra.eth[2].mac 	"bytes rcvd" 	930
scalar VoIPMCoAMulti.Ra.eth[2].mac 	"frames from higher layer" 	11
scalar VoIPMCoAMulti.Ra.eth[2].mac 	"frames from higher layer dropped (iface down)" 	0
scalar VoIPMCoAMulti.Ra.eth[2].mac 	"frames dropped (bit error)" 	0
scalar VoIPMCoAMulti.Ra.eth[2].mac 	"frames dropped (not for us)" 	0
scalar VoIPMCoAMulti.Ra.eth[2].mac 	"frames passed up to HL" 	11
scalar VoIPMCoAMulti.Ra.eth[2].mac 	"PAUSE frames sent" 	0
scalar VoIPMCoAMulti.Ra.eth[2].mac 	"PAUSE frames rcvd" 	0
scalar VoIPMCoAMulti.Ra.eth[2].mac 	"frames/sec sent" 	0.055
scalar VoIPMCoAMulti.Ra.eth[2].mac 	"frames/sec rcvd" 	0.055
scalar VoIPMCoAMulti.Ra.eth[2].mac 	"bits/sec sent" 	39.28
scalar VoIPMCoAMulti.Ra.eth[2].mac 	"bits/sec rcvd" 	37.2
scalar VoIPMCoAMulti.Ra.eth[2].mac 	"rx channel idle (%)" 	99.9995928
scalar VoIPMCoAMulti.Ra.eth[2].mac 	"rx channel utilization (%)" 	0.0004072
scalar VoIPMCoAMulti.Ra.eth[2].mac 	"rx channel collision (%)" 	0
scalar VoIPMCoAMulti.Ra.eth[2].mac 	collisions 	0
scalar VoIPMCoAMulti.Ra.eth[2].mac 	backoffs 	0
scalar VoIPMCoAMulti.Ra.eth[2].encap 	"packets from higher layer" 	11
scalar VoIPMCoAMulti.Ra.eth[2].encap 	"frames from MAC" 	11
scalar VoIPMCoAMulti.CN[0].pingApp 	"Pings sent" 	0
scalar VoIPMCoAMulti.CN[0].networkLayer.ipv6 	IPv6_numDropNonActive 	0
scalar VoIPMCoAMulti.CN[0].networkLayer.ipv6 	IPv6_Forwarded 	14
scalar VoIPMCoAMulti.CN[0].eth[0].queue 	"packets received by queue" 	14
scalar VoIPMCoAMulti.CN[0].eth[0].queue 	"packets dropped by queue" 	0
scalar VoIPMCoAMulti.CN[0].eth[0].mac 	"simulated time" 	200
scalar VoIPMCoAMulti.CN[0].eth[0].mac 	"txrate (Mb)" 	10
scalar VoIPMCoAMulti.CN[0].eth[0].mac 	"full duplex" 	0
scalar VoIPMCoAMulti.CN[0].eth[0].mac 	"frames sent" 	14
scalar VoIPMCoAMulti.CN[0].eth[0].mac 	"frames rcvd" 	13
scalar VoIPMCoAMulti.CN[0].eth[0].mac 	"bytes sent" 	1122
scalar VoIPMCoAMulti.CN[0].eth[0].mac 	"bytes rcvd" 	1110
scalar VoIPMCoAMulti.CN[0].eth[0].mac 	"frames from higher layer" 	14
scalar VoIPMCoAMulti.CN[0].eth[0].mac 	"frames from higher layer dropped (iface down)" 	0
scalar VoIPMCoAMulti.CN[0].eth[0].mac 	"frames dropped (bit error)" 	0
scalar VoIPMCoAMulti.CN[0].eth[0].mac 	"frames dropped (not for us)" 	0
scalar VoIPMCoAMulti.CN[0].eth[0].mac 	"frames passed up to HL" 	13
scalar VoIPMCoAMulti.CN[0].eth[0].mac 	"PAUSE frames sent" 	0
scalar VoIPMCoAMulti.CN[0].eth[0].mac 	"PAUSE frames rcvd" 	0
scalar VoIPMCoAMulti.CN[0].eth[0].mac 	"frames/sec sent" 	0.07
scalar VoIPMCoAMulti.CN[0].eth[0].mac 	"frames/sec rcvd" 	0.065
scalar VoIPMCoAMulti.CN[0].eth[0].mac 	"bits/sec sent" 	44.88
scalar VoIPMCoAMulti.CN[0].eth[0].mac 	"bits/sec rcvd" 	44.4
scalar VoIPMCoAMulti.CN[0].eth[0].mac 	"rx channel idle (%)" 	99.9990208
scalar VoIPMCoAMulti.CN[0].eth[0].mac 	"rx channel utilization (%)" 	0.0009792
scalar VoIPMCoAMulti.CN[0].eth[0].mac 	"rx channel collision (%)" 	0
scalar VoIPMCoAMulti.CN[0].eth[0].mac 	collisions 	0
scalar VoIPMCoAMulti.CN[0].eth[0].mac 	backoffs 	0
scalar VoIPMCoAMulti.CN[0].eth[0].encap 	"packets from higher layer" 	14
scalar VoIPMCoAMulti.CN[0].eth[0].encap 	"frames from MAC" 	13
scalar VoIPMCoAMulti.hub 	"simulated time" 	200
scalar VoIPMCoAMulti.hub 	"messages handled" 	29
scalar VoIPMCoAMulti.hub 	messages/sec 	0.145
scalar VoIPMCoAMulti.HA.pingApp 	"Pings sent" 	0
scalar VoIPMCoAMulti.HA.networkLayer.ipv6 	IPv6_numDropNonActive 	104
scalar VoIPMCoAMulti.HA.networkLayer.ipv6 	IPv6_Forwarded 	3924
scalar VoIPMCoAMulti.HA.eth[0].queue 	"packets received by queue" 	17
scalar VoIPMCoAMulti.HA.eth[0].queue 	"packets dropped by queue" 	0
scalar VoIPMCoAMulti.HA.eth[0].mac 	"simulated time" 	200
scalar VoIPMCoAMulti.HA.eth[0].mac 	"txrate (Mb)" 	10
scalar VoIPMCoAMulti.HA.eth[0].mac 	"full duplex" 	1
scalar VoIPMCoAMulti.HA.eth[0].mac 	"frames sent" 	17
scalar VoIPMCoAMulti.HA.eth[0].mac 	"frames rcvd" 	17
scalar VoIPMCoAMulti.HA.eth[0].mac 	"bytes sent" 	1622
scalar VoIPMCoAMulti.HA.eth[0].mac 	"bytes rcvd" 	1592
scalar VoIPMCoAMulti.HA.eth[0].mac 	"frames from higher layer" 	17
scalar VoIPMCoAMulti.HA.eth[0].mac 	"frames from higher layer dropped (iface down)" 	0
scalar VoIPMCoAMulti.HA.eth[0].mac 	"frames dropped (bit error)" 	0
scalar VoIPMCoAMulti.HA.eth[0].mac 	"frames dropped (not for us)" 	0
scalar VoIPMCoAMulti.HA.eth[0].mac 	"frames passed up to HL" 	17
scalar VoIPMCoAMulti.HA.eth[0].mac 	"PAUSE frames sent" 	0
scalar VoIPMCoAMulti.HA.eth[0].mac 	"PAUSE frames rcvd" 	0
scalar VoIPMCoAMulti.HA.eth[0].mac 	"frames/sec sent" 	0.085
scalar VoIPMCoAMulti.HA.eth[0].mac 	"frames/sec rcvd" 	0.085
scalar VoIPMCoAMulti.HA.eth[0].mac 	"bits/sec sent" 	64.88
scalar VoIPMCoAMulti.HA.eth[0].mac 	"bits/sec rcvd" 	63.68
scalar VoIPMCoAMulti.HA.eth[0].mac 	"rx channel idle (%)" 	99.9993088
scalar VoIPMCoAMulti.HA.eth[0].mac 	"rx channel utilization (%)" 	0.0006912
scalar VoIPMCoAMulti.HA.eth[0].mac 	"rx channel collision (%)" 	0
scalar VoIPMCoAMulti.HA.eth[0].mac 	collisions 	0
scalar VoIPMCoAMulti.HA.eth[0].mac 	backoffs 	0
scalar VoIPMCoAMulti.HA.eth[0].encap 	"packets from higher layer" 	17
scalar VoIPMCoAMulti.HA.eth[0].encap 	"frames from MAC" 	17
scalar VoIPMCoAMulti.HA.eth[1].queue 	"packets received by queue" 	3907
scalar VoIPMCoAMulti.HA.eth[1].queue 	"packets dropped by queue" 	0
scalar VoIPMCoAMulti.HA.eth[1].mac 	"simulated time" 	200
scalar VoIPMCoAMulti.HA.eth[1].mac 	"txrate (Mb)" 	10
scalar VoIPMCoAMulti.HA.eth[1].mac 	"full duplex" 	1
scalar VoIPMCoAMulti.HA.eth[1].mac 	"frames sent" 	3907
scalar VoIPMCoAMulti.HA.eth[1].mac 	"frames rcvd" 	6
scalar VoIPMCoAMulti.HA.eth[1].mac 	"bytes sent" 	250050
scalar VoIPMCoAMulti.HA.eth[1].mac 	"bytes rcvd" 	256
scalar VoIPMCoAMulti.HA.eth[1].mac 	"frames from higher layer" 	3907
scalar VoIPMCoAMulti.HA.eth[1].mac 	"frames from higher layer dropped (iface down)" 	0
scalar VoIPMCoAMulti.HA.eth[1].mac 	"frames dropped (bit error)" 	0
scalar VoIPMCoAMulti.HA.eth[1].mac 	"frames dropped (not for us)" 	0
scalar VoIPMCoAMulti.HA.eth[1].mac 	"frames passed up to HL" 	6
scalar VoIPMCoAMulti.HA.eth[1].mac 	"PAUSE frames sent" 	0
scalar VoIPMCoAMulti.HA.eth[1].mac 	"PAUSE frames rcvd" 	0
scalar VoIPMCoAMulti.HA.eth[1].mac 	"frames/sec sent" 	19.535
scalar VoIPMCoAMulti.HA.eth[1].mac 	"frames/sec rcvd" 	0.03
scalar VoIPMCoAMulti.HA.eth[1].mac 	"bits/sec sent" 	10002
scalar VoIPMCoAMulti.HA.eth[1].mac 	"bits/sec rcvd" 	10.24
scalar VoIPMCoAMulti.HA.eth[1].mac 	"rx channel idle (%)" 	99.9998784
scalar VoIPMCoAMulti.HA.eth[1].mac 	"rx channel utilization (%)" 	0.0001216
scalar VoIPMCoAMulti.HA.eth[1].mac 	"rx channel collision (%)" 	0
scalar VoIPMCoAMulti.HA.eth[1].mac 	collisions 	0
scalar VoIPMCoAMulti.HA.eth[1].mac 	backoffs 	0
scalar VoIPMCoAMulti.HA.eth[1].encap 	"packets from higher layer" 	3907
scalar VoIPMCoAMulti.HA.eth[1].encap 	"frames from MAC" 	6
scalar VoIPMCoAMulti.AP_HA.wlan.mgmt 	"packets received by queue" 	5931
scalar VoIPMCoAMulti.AP_HA.wlan.mgmt 	"packets dropped by queue" 	0
scalar VoIPMCoAMulti.AP_HA.wlan.mac 	numSent 	23
scalar VoIPMCoAMulti.AP_HA.wlan.mac 	numSentWithoutRetry 	23
scalar VoIPMCoAMulti.AP_HA.wlan.mac 	numReceived 	22
scalar VoIPMCoAMulti.AP_HA.wlan.mac 	numSentBroadcast 	5908
scalar VoIPMCoAMulti.AP_HA.wlan.mac 	numReceivedBroadcast 	5
scalar VoIPMCoAMulti.AP_HA.wlan.mac 	numReceivedOther 	0
scalar VoIPMCoAMulti.AP_HA.wlan.mac 	numCollision 	0
scalar VoIPMCoAMulti.AP_HA.wlan.mac 	numGivenUp 	0
scalar VoIPMCoAMulti.AP_HA.wlan.mac 	numAckSend 	22
scalar VoIPMCoAMulti.AP_HA.wlan.mac 	numRetry 	0
scalar VoIPMCoAMulti.MN[0].pingApp 	"Pings sent" 	0
scalar VoIPMCoAMulti.MN[0].networkLayer.ipv6 	IPv6_numDropNonActive 	0
scalar VoIPMCoAMulti.MN[0].networkLayer.ipv6 	IPv6_Forwarded 	36
scalar VoIPMCoAMulti.MN[0].wlan[0].mgmt 	"packets received by queue" 	407
scalar VoIPMCoAMulti.MN[0].wlan[0].mgmt 	"packets dropped by queue" 	0
scalar VoIPMCoAMulti.MN[0].wlan[0].mac 	numSent 	18
scalar VoIPMCoAMulti.MN[0].wlan[0].mac 	numSentWithoutRetry 	18
scalar VoIPMCoAMulti.MN[0].wlan[0].mac 	numReceived 	19
scalar VoIPMCoAMulti.MN[0].wlan[0].mac 	numSentBroadcast 	389
scalar VoIPMCoAMulti.MN[0].wlan[0].mac 	numReceivedBroadcast 	3002
scalar VoIPMCoAMulti.MN[0].wlan[0].mac 	numReceivedOther 	2
scalar VoIPMCoAMulti.MN[0].wlan[0].mac 	numCollision 	0
scalar VoIPMCoAMulti.MN[0].wlan[0].mac 	numGivenUp 	0
scalar VoIPMCoAMulti.MN[0].wlan[0].mac 	numAckSend 	19
scalar VoIPMCoAMulti.MN[0].wlan[0].mac 	numRetry 	0
scalar VoIPMCoAMulti.MN[0].wlan[1].mgmt 	"packets received by queue" 	215
scalar VoIPMCoAMulti.MN[0].wlan[1].mgmt 	"packets dropped by queue" 	0
scalar VoIPMCoAMulti.MN[0].wlan[1].mac 	numSent 	17
scalar VoIPMCoAMulti.MN[0].wlan[1].mac 	numSentWithoutRetry 	17
scalar VoIPMCoAMulti.MN[0].wlan[1].mac 	numReceived 	17
scalar VoIPMCoAMulti.MN[0].wlan[1].mac 	numSentBroadcast 	198
scalar VoIPMCoAMulti.MN[0].wlan[1].mac 	numReceivedBroadcast 	4199
scalar VoIPMCoAMulti.MN[0].wlan[1].mac 	numReceivedOther 	0
scalar VoIPMCoAMulti.MN[0].wlan[1].mac 	numCollision 	0
scalar VoIPMCoAMulti.MN[0].wlan[1].mac 	numGivenUp 	0
scalar VoIPMCoAMulti.MN[0].wlan[1].mac 	numAckSend 	17
scalar VoIPMCoAMulti.MN[0].wlan[1].mac 	numRetry 	0
scalar VoIPMCoAMulti.MN[0].wlan[2].mgmt 	"packets received by queue" 	761
scalar VoIPMCoAMulti.MN[0].wlan[2].mgmt 	"packets dropped by queue" 	0
scalar VoIPMCoAMulti.MN[0].wlan[2].mac 	numSent 	12
scalar VoIPMCoAMulti.MN[0].wlan[2].mac 	numSentWithoutRetry 	12
scalar VoIPMCoAMulti.MN[0].wlan[2].mac 	numReceived 	11
scalar VoIPMCoAMulti.MN[0].wlan[2].mac 	numSentBroadcast 	749
scalar VoIPMCoAMulti.MN[0].wlan[2].mac 	numReceivedBroadcast 	195
scalar VoIPMCoAMulti.MN[0].wlan[2].mac 	numReceivedOther 	0
scalar VoIPMCoAMulti.MN[0].wlan[2].mac 	numCollision 	0
scalar VoIPMCoAMulti.MN[0].wlan[2].mac 	numGivenUp 	0
scalar VoIPMCoAMulti.MN[0].wlan[2].mac 	numAckSend 	11
scalar VoIPMCoAMulti.MN[0].wlan[2].mac 	numRetry 	0
scalar VoIPMCoAMulti.MN[1].pingApp 	"Pings sent" 	0
scalar VoIPMCoAMulti.MN[1].networkLayer.ipv6 	IPv6_numDropNonActive 	0
scalar VoIPMCoAMulti.MN[1].networkLayer.ipv6 	IPv6_Forwarded 	4
scalar VoIPMCoAMulti.MN[1].wlan[0].mgmt 	"packets received by queue" 	5
scalar VoIPMCoAMulti.MN[1].wlan[0].mgmt 	"packets dropped by queue" 	0
scalar VoIPMCoAMulti.MN[1].wlan[0].mac 	numSent 	4
scalar VoIPMCoAMulti.MN[1].wlan[0].mac 	numSentWithoutRetry 	4
scalar VoIPMCoAMulti.MN[1].wlan[0].mac 	numReceived 	4
scalar VoIPMCoAMulti.MN[1].wlan[0].mac 	numSentBroadcast 	1
scalar VoIPMCoAMulti.MN[1].wlan[0].mac 	numReceivedBroadcast 	5982
scalar VoIPMCoAMulti.MN[1].wlan[0].mac 	numReceivedOther 	74
scalar VoIPMCoAMulti.MN[1].wlan[0].mac 	numCollision 	0
scalar VoIPMCoAMulti.MN[1].wlan[0].mac 	numGivenUp 	0
scalar VoIPMCoAMulti.MN[1].wlan[0].mac 	numAckSend 	4
scalar VoIPMCoAMulti.MN[1].wlan[0].mac 	numRetry 	0
scalar VoIPMCoAMulti.R1.networkLayer.ipv6 	IPv6_numDropNonActive 	397
scalar VoIPMCoAMulti.R1.networkLayer.ipv6 	IPv6_Forwarded 	7655
scalar VoIPMCoAMulti.R1.eth[0].queue 	"packets received by queue" 	17
scalar VoIPMCoAMulti.R1.eth[0].queue 	"packets dropped by queue" 	0
scalar VoIPMCoAMulti.R1.eth[0].mac 	"simulated time" 	200
scalar VoIPMCoAMulti.R1.eth[0].mac 	"txrate (Mb)" 	10
scalar VoIPMCoAMulti.R1.eth[0].mac 	"full duplex" 	1
scalar VoIPMCoAMulti.R1.eth[0].mac 	"frames sent" 	17
scalar VoIPMCoAMulti.R1.eth[0].mac 	"frames rcvd" 	17
scalar VoIPMCoAMulti.R1.eth[0].mac 	"bytes sent" 	1782
scalar VoIPMCoAMulti.R1.eth[0].mac 	"bytes rcvd" 	1760
scalar VoIPMCoAMulti.R1.eth[0].mac 	"frames from higher layer" 	17
scalar VoIPMCoAMulti.R1.eth[0].mac 	"frames from higher layer dropped (iface down)" 	0
scalar VoIPMCoAMulti.R1.eth[0].mac 	"frames dropped (bit error)" 	0
scalar VoIPMCoAMulti.R1.eth[0].mac 	"frames dropped (not for us)" 	0
scalar VoIPMCoAMulti.R1.eth[0].mac 	"frames passed up to HL" 	17
scalar VoIPMCoAMulti.R1.eth[0].mac 	"PAUSE frames sent" 	0
scalar VoIPMCoAMulti.R1.eth[0].mac 	"PAUSE frames rcvd" 	0
scalar VoIPMCoAMulti.R1.eth[0].mac 	"frames/sec sent" 	0.085
scalar VoIPMCoAMulti.R1.eth[0].mac 	"frames/sec rcvd" 	0.085
scalar VoIPMCoAMulti.R1.eth[0].mac 	"bits/sec sent" 	71.28
scalar VoIPMCoAMulti.R1.eth[0].mac 	"bits/sec rcvd" 	70.4
scalar VoIPMCoAMulti.R1.eth[0].mac 	"rx channel idle (%)" 	99.9992416
scalar VoIPMCoAMulti.R1.eth[0].mac 	"rx channel utilization (%)" 	0.0007584
scalar VoIPMCoAMulti.R1.eth[0].mac 	"rx channel collision (%)" 	0
scalar VoIPMCoAMulti.R1.eth[0].mac 	collisions 	0
scalar VoIPMCoAMulti.R1.eth[0].mac 	backoffs 	0
scalar VoIPMCoAMulti.R1.eth[0].encap 	"packets from higher layer" 	17
scalar VoIPMCoAMulti.R1.eth[0].encap 	"frames from MAC" 	17
scalar VoIPMCoAMulti.R1.eth[1].queue 	"packets received by queue" 	3806
scalar VoIPMCoAMulti.R1.eth[1].queue 	"packets dropped by queue" 	0
scalar VoIPMCoAMulti.R1.eth[1].mac 	"simulated time" 	200
scalar VoIPMCoAMulti.R1.eth[1].mac 	"txrate (Mb)" 	10
scalar VoIPMCoAMulti.R1.eth[1].mac 	"full duplex" 	1
scalar VoIPMCoAMulti.R1.eth[1].mac 	"frames sent" 	3806
scalar VoIPMCoAMulti.R1.eth[1].mac 	"frames rcvd" 	9
scalar VoIPMCoAMulti.R1.eth[1].mac 	"bytes sent" 	243898
scalar VoIPMCoAMulti.R1.eth[1].mac 	"bytes rcvd" 	716
scalar VoIPMCoAMulti.R1.eth[1].mac 	"frames from higher layer" 	3806
scalar VoIPMCoAMulti.R1.eth[1].mac 	"frames from higher layer dropped (iface down)" 	0
scalar VoIPMCoAMulti.R1.eth[1].mac 	"frames dropped (bit error)" 	0
scalar VoIPMCoAMulti.R1.eth[1].mac 	"frames dropped (not for us)" 	0
scalar VoIPMCoAMulti.R1.eth[1].mac 	"frames passed up to HL" 	9
scalar VoIPMCoAMulti.R1.eth[1].mac 	"PAUSE frames sent" 	0
scalar VoIPMCoAMulti.R1.eth[1].mac 	"PAUSE frames rcvd" 	0
scalar VoIPMCoAMulti.R1.eth[1].mac 	"frames/sec sent" 	19.03
scalar VoIPMCoAMulti.R1.eth[1].mac 	"frames/sec rcvd" 	0.045
scalar VoIPMCoAMulti.R1.eth[1].mac 	"bits/sec sent" 	9755.92
scalar VoIPMCoAMulti.R1.eth[1].mac 	"bits/sec rcvd" 	28.64
scalar VoIPMCoAMulti.R1.eth[1].mac 	"rx channel idle (%)" 	99.9996848
scalar VoIPMCoAMulti.R1.eth[1].mac 	"rx channel utilization (%)" 	0.0003152
scalar VoIPMCoAMulti.R1.eth[1].mac 	"rx channel collision (%)" 	0
scalar VoIPMCoAMulti.R1.eth[1].mac 	collisions 	0
scalar VoIPMCoAMulti.R1.eth[1].mac 	backoffs 	0
scalar VoIPMCoAMulti.R1.eth[1].encap 	"packets from higher layer" 	3806
scalar VoIPMCoAMulti.R1.eth[1].encap 	"frames from MAC" 	9
scalar VoIPMCoAMulti.R1.eth[2].queue 	"packets received by queue" 	3832
scalar VoIPMCoAMulti.R1.eth[2].queue 	"packets dropped by queue" 	0
scalar VoIPMCoAMulti.R1.eth[2].mac 	"simulated time" 	200
scalar VoIPMCoAMulti.R1.eth[2].mac 	"txrate (Mb)" 	10
scalar VoIPMCoAMulti.R1.eth[2].mac 	"full duplex" 	1
scalar VoIPMCoAMulti.R1.eth[2].mac 	"frames sent" 	3832
scalar VoIPMCoAMulti.R1.eth[2].mac 	"frames rcvd" 	9
scalar VoIPMCoAMulti.R1.eth[2].mac 	"bytes sent" 	245606
scalar VoIPMCoAMulti.R1.eth[2].mac 	"bytes rcvd" 	782
scalar VoIPMCoAMulti.R1.eth[2].mac 	"frames from higher layer" 	3832
scalar VoIPMCoAMulti.R1.eth[2].mac 	"frames from higher layer dropped (iface down)" 	0
scalar VoIPMCoAMulti.R1.eth[2].mac 	"frames dropped (bit error)" 	0
scalar VoIPMCoAMulti.R1.eth[2].mac 	"frames dropped (not for us)" 	0
scalar VoIPMCoAMulti.R1.eth[2].mac 	"frames passed up to HL" 	9
scalar VoIPMCoAMulti.R1.eth[2].mac 	"PAUSE frames sent" 	0
scalar VoIPMCoAMulti.R1.eth[2].mac 	"PAUSE frames rcvd" 	0
scalar VoIPMCoAMulti.R1.eth[2].mac 	"frames/sec sent" 	19.16
scalar VoIPMCoAMulti.R1.eth[2].mac 	"frames/sec rcvd" 	0.045
scalar VoIPMCoAMulti.R1.eth[2].mac 	"bits/sec sent" 	9824.24
scalar VoIPMCoAMulti.R1.eth[2].mac 	"bits/sec rcvd" 	31.28
scalar VoIPMCoAMulti.R1.eth[2].mac 	"rx channel idle (%)" 	99.9996584
scalar VoIPMCoAMulti.R1.eth[2].mac 	"rx channel utilization (%)" 	0.0003416
scalar VoIPMCoAMulti.R1.eth[2].mac 	"rx channel collision (%)" 	0
scalar VoIPMCoAMulti.R1.eth[2].mac 	collisions 	0
scalar VoIPMCoAMulti.R1.eth[2].mac 	backoffs 	0
scalar VoIPMCoAMulti.R1.eth[2].encap 	"packets from higher layer" 	3832
scalar VoIPMCoAMulti.R1.eth[2].encap 	"frames from MAC" 	9
scalar VoIPMCoAMulti.AP_1.wlan.mgmt 	"packets received by queue" 	5819
scalar VoIPMCoAMulti.AP_1.wlan.mgmt 	"packets dropped by queue" 	0
scalar VoIPMCoAMulti.AP_1.wlan.mac 	numSent 	17
scalar VoIPMCoAMulti.AP_1.wlan.mac 	numSentWithoutRetry 	17
scalar VoIPMCoAMulti.AP_1.wlan.mac 	numReceived 	17
scalar VoIPMCoAMulti.AP_1.wlan.mac 	numSentBroadcast 	5802
scalar VoIPMCoAMulti.AP_1.wlan.mac 	numReceivedBroadcast 	2
scalar VoIPMCoAMulti.AP_1.wlan.mac 	numReceivedOther 	0
scalar VoIPMCoAMulti.AP_1.wlan.mac 	numCollision 	0
scalar VoIPMCoAMulti.AP_1.wlan.mac 	numGivenUp 	0
scalar VoIPMCoAMulti.AP_1.wlan.mac 	numAckSend 	17
scalar VoIPMCoAMulti.AP_1.wlan.mac 	numRetry 	0
scalar VoIPMCoAMulti.AP_2.wlan.mgmt 	"packets received by queue" 	5839
scalar VoIPMCoAMulti.AP_2.wlan.mgmt 	"packets dropped by queue" 	0
scalar VoIPMCoAMulti.AP_2.wlan.mac 	numSent 	11
scalar VoIPMCoAMulti.AP_2.wlan.mac 	numSentWithoutRetry 	11
scalar VoIPMCoAMulti.AP_2.wlan.mac 	numReceived 	12
scalar VoIPMCoAMulti.AP_2.wlan.mac 	numSentBroadcast 	5828
scalar VoIPMCoAMulti.AP_2.wlan.mac 	numReceivedBroadcast 	1
scalar VoIPMCoAMulti.AP_2.wlan.mac 	numReceivedOther 	0
scalar VoIPMCoAMulti.AP_2.wlan.mac 	numCollision 	0
scalar VoIPMCoAMulti.AP_2.wlan.mac 	numGivenUp 	0
scalar VoIPMCoAMulti.AP_2.wlan.mac 	numAckSend 	12
scalar VoIPMCoAMulti.AP_2.wlan.mac 	numRetry 	0
scalar VoIPMCoAMulti.Rb.networkLayer.ipv6 	IPv6_numDropNonActive 	0
scalar VoIPMCoAMulti.Rb.networkLayer.ipv6 	IPv6_Forwarded 	24
scalar VoIPMCoAMulti.Rb.eth[0].queue 	"packets received by queue" 	11
scalar VoIPMCoAMulti.Rb.eth[0].queue 	"packets dropped by queue" 	0
scalar VoIPMCoAMulti.Rb.eth[0].mac 	"simulated time" 	200
scalar VoIPMCoAMulti.Rb.eth[0].mac 	"txrate (Mb)" 	10
scalar VoIPMCoAMulti.Rb.eth[0].mac 	"full duplex" 	1
scalar VoIPMCoAMulti.Rb.eth[0].mac 	"frames sent" 	11
scalar VoIPMCoAMulti.Rb.eth[0].mac 	"frames rcvd" 	11
scalar VoIPMCoAMulti.Rb.eth[0].mac 	"bytes sent" 	930
scalar VoIPMCoAMulti.Rb.eth[0].mac 	"bytes rcvd" 	982
scalar VoIPMCoAMulti.Rb.eth[0].mac 	"frames from higher layer" 	11
scalar VoIPMCoAMulti.Rb.eth[0].mac 	"frames from higher layer dropped (iface down)" 	0
scalar VoIPMCoAMulti.Rb.eth[0].mac 	"frames dropped (bit error)" 	0
scalar VoIPMCoAMulti.Rb.eth[0].mac 	"frames dropped (not for us)" 	0
scalar VoIPMCoAMulti.Rb.eth[0].mac 	"frames passed up to HL" 	11
scalar VoIPMCoAMulti.Rb.eth[0].mac 	"PAUSE frames sent" 	0
scalar VoIPMCoAMulti.Rb.eth[0].mac 	"PAUSE frames rcvd" 	0
scalar VoIPMCoAMulti.Rb.eth[0].mac 	"frames/sec sent" 	0.055
scalar VoIPMCoAMulti.Rb.eth[0].mac 	"frames/sec rcvd" 	0.055
scalar VoIPMCoAMulti.Rb.eth[0].mac 	"bits/sec sent" 	37.2
scalar VoIPMCoAMulti.Rb.eth[0].mac 	"bits/sec rcvd" 	39.28
scalar VoIPMCoAMulti.Rb.eth[0].mac 	"rx channel idle (%)" 	99.999572
scalar VoIPMCoAMulti.Rb.eth[0].mac 	"rx channel utilization (%)" 	0.000428
scalar VoIPMCoAMulti.Rb.eth[0].mac 	"rx channel collision (%)" 	0
scalar VoIPMCoAMulti.Rb.eth[0].mac 	collisions 	0
scalar VoIPMCoAMulti.Rb.eth[0].mac 	backoffs 	0
scalar VoIPMCoAMulti.Rb.eth[0].encap 	"packets from higher layer" 	11
scalar VoIPMCoAMulti.Rb.eth[0].encap 	"frames from MAC" 	11
scalar VoIPMCoAMulti.Rb.eth[1].queue 	"packets received by queue" 	13
scalar VoIPMCoAMulti.Rb.eth[1].queue 	"packets dropped by queue" 	0
scalar VoIPMCoAMulti.Rb.eth[1].mac 	"simulated time" 	200
scalar VoIPMCoAMulti.Rb.eth[1].mac 	"txrate (Mb)" 	10
scalar VoIPMCoAMulti.Rb.eth[1].mac 	"full duplex" 	0
scalar VoIPMCoAMulti.Rb.eth[1].mac 	"frames sent" 	13
scalar VoIPMCoAMulti.Rb.eth[1].mac 	"frames rcvd" 	14
scalar VoIPMCoAMulti.Rb.eth[1].mac 	"bytes sent" 	1110
scalar VoIPMCoAMulti.Rb.eth[1].mac 	"bytes rcvd" 	1122
scalar VoIPMCoAMulti.Rb.eth[1].mac 	"frames from higher layer" 	13
scalar VoIPMCoAMulti.Rb.eth[1].mac 	"frames from higher layer dropped (iface down)" 	0
scalar VoIPMCoAMulti.Rb.eth[1].mac 	"frames dropped (bit error)" 	0
scalar VoIPMCoAMulti.Rb.eth[1].mac 	"frames dropped (not for us)" 	0
scalar VoIPMCoAMulti.Rb.eth[1].mac 	"frames passed up to HL" 	14
scalar VoIPMCoAMulti.Rb.eth[1].mac 	"PAUSE frames sent" 	0
scalar VoIPMCoAMulti.Rb.eth[1].mac 	"PAUSE frames rcvd" 	0
scalar VoIPMCoAMulti.Rb.eth[1].mac 	"frames/sec sent" 	0.065
scalar VoIPMCoAMulti.Rb.eth[1].mac 	"frames/sec rcvd" 	0.07
scalar VoIPMCoAMulti.Rb.eth[1].mac 	"bits/sec sent" 	44.4
scalar VoIPMCoAMulti.Rb.eth[1].mac 	"bits/sec rcvd" 	44.88
scalar VoIPMCoAMulti.Rb.eth[1].mac 	"rx channel idle (%)" 	99.9990208
scalar VoIPMCoAMulti.Rb.eth[1].mac 	"rx channel utilization (%)" 	0.0009792
scalar VoIPMCoAMulti.Rb.eth[1].mac 	"rx channel collision (%)" 	0
scalar VoIPMCoAMulti.Rb.eth[1].mac 	collisions 	0
scalar VoIPMCoAMulti.Rb.eth[1].mac 	backoffs 	0
scalar VoIPMCoAMulti.Rb.eth[1].encap 	"packets from higher layer" 	13
scalar VoIPMCoAMulti.Rb.eth[1].encap 	"frames from MAC" 	14
