version 2
run MCoA_ALL-0-20150318-22:33:19-16138
attr configname MCoA_ALL
attr datetime 20150318-22:33:19
attr experiment MCoA_ALL
attr inifile VoIPMCoACN.ini
attr iterationvars ""
attr iterationvars2 $repetition=0
attr measurement ""
attr network VoIPMCoAMulti
attr processid 16138
attr repetition 0
attr replication #0
attr resultdir results
attr runnumber 0
attr seedset 0

scalar VoIPMCoAMulti.Ra.networkLayer.ipv6 	IPv6_numDropNonActive 	0
scalar VoIPMCoAMulti.Ra.networkLayer.ipv6 	IPv6_Forwarded 	7
scalar VoIPMCoAMulti.Ra.eth[0].queue 	"packets received by queue" 	2
scalar VoIPMCoAMulti.Ra.eth[0].queue 	"packets dropped by queue" 	0
scalar VoIPMCoAMulti.Ra.eth[0].mac 	"simulated time" 	200
scalar VoIPMCoAMulti.Ra.eth[0].mac 	"txrate (Mb)" 	10
scalar VoIPMCoAMulti.Ra.eth[0].mac 	"full duplex" 	1
scalar VoIPMCoAMulti.Ra.eth[0].mac 	"frames sent" 	2
scalar VoIPMCoAMulti.Ra.eth[0].mac 	"frames rcvd" 	4
scalar VoIPMCoAMulti.Ra.eth[0].mac 	"bytes sent" 	128
scalar VoIPMCoAMulti.Ra.eth[0].mac 	"bytes rcvd" 	260
scalar VoIPMCoAMulti.Ra.eth[0].mac 	"frames from higher layer" 	2
scalar VoIPMCoAMulti.Ra.eth[0].mac 	"frames from higher layer dropped (iface down)" 	0
scalar VoIPMCoAMulti.Ra.eth[0].mac 	"frames dropped (bit error)" 	0
scalar VoIPMCoAMulti.Ra.eth[0].mac 	"frames dropped (not for us)" 	0
scalar VoIPMCoAMulti.Ra.eth[0].mac 	"frames passed up to HL" 	4
scalar VoIPMCoAMulti.Ra.eth[0].mac 	"PAUSE frames sent" 	0
scalar VoIPMCoAMulti.Ra.eth[0].mac 	"PAUSE frames rcvd" 	0
scalar VoIPMCoAMulti.Ra.eth[0].mac 	"frames/sec sent" 	0.01
scalar VoIPMCoAMulti.Ra.eth[0].mac 	"frames/sec rcvd" 	0.02
scalar VoIPMCoAMulti.Ra.eth[0].mac 	"bits/sec sent" 	5.12
scalar VoIPMCoAMulti.Ra.eth[0].mac 	"bits/sec rcvd" 	10.4
scalar VoIPMCoAMulti.Ra.eth[0].mac 	"rx channel idle (%)" 	99.9998832
scalar VoIPMCoAMulti.Ra.eth[0].mac 	"rx channel utilization (%)" 	0.0001168
scalar VoIPMCoAMulti.Ra.eth[0].mac 	"rx channel collision (%)" 	0
scalar VoIPMCoAMulti.Ra.eth[0].mac 	collisions 	0
scalar VoIPMCoAMulti.Ra.eth[0].mac 	backoffs 	0
scalar VoIPMCoAMulti.Ra.eth[0].encap 	"packets from higher layer" 	2
scalar VoIPMCoAMulti.Ra.eth[0].encap 	"frames from MAC" 	4
scalar VoIPMCoAMulti.Ra.eth[1].queue 	"packets received by queue" 	1
scalar VoIPMCoAMulti.Ra.eth[1].queue 	"packets dropped by queue" 	0
scalar VoIPMCoAMulti.Ra.eth[1].mac 	"simulated time" 	200
scalar VoIPMCoAMulti.Ra.eth[1].mac 	"txrate (Mb)" 	10
scalar VoIPMCoAMulti.Ra.eth[1].mac 	"full duplex" 	1
scalar VoIPMCoAMulti.Ra.eth[1].mac 	"frames sent" 	1
scalar VoIPMCoAMulti.Ra.eth[1].mac 	"frames rcvd" 	1
scalar VoIPMCoAMulti.Ra.eth[1].mac 	"bytes sent" 	64
scalar VoIPMCoAMulti.Ra.eth[1].mac 	"bytes rcvd" 	64
scalar VoIPMCoAMulti.Ra.eth[1].mac 	"frames from higher layer" 	1
scalar VoIPMCoAMulti.Ra.eth[1].mac 	"frames from higher layer dropped (iface down)" 	0
scalar VoIPMCoAMulti.Ra.eth[1].mac 	"frames dropped (bit error)" 	0
scalar VoIPMCoAMulti.Ra.eth[1].mac 	"frames dropped (not for us)" 	0
scalar VoIPMCoAMulti.Ra.eth[1].mac 	"frames passed up to HL" 	1
scalar VoIPMCoAMulti.Ra.eth[1].mac 	"PAUSE frames sent" 	0
scalar VoIPMCoAMulti.Ra.eth[1].mac 	"PAUSE frames rcvd" 	0
scalar VoIPMCoAMulti.Ra.eth[1].mac 	"frames/sec sent" 	0.005
scalar VoIPMCoAMulti.Ra.eth[1].mac 	"frames/sec rcvd" 	0.005
scalar VoIPMCoAMulti.Ra.eth[1].mac 	"bits/sec sent" 	2.56
scalar VoIPMCoAMulti.Ra.eth[1].mac 	"bits/sec rcvd" 	2.56
scalar VoIPMCoAMulti.Ra.eth[1].mac 	"rx channel idle (%)" 	99.9999712
scalar VoIPMCoAMulti.Ra.eth[1].mac 	"rx channel utilization (%)" 	2.88e-05
scalar VoIPMCoAMulti.Ra.eth[1].mac 	"rx channel collision (%)" 	0
scalar VoIPMCoAMulti.Ra.eth[1].mac 	collisions 	0
scalar VoIPMCoAMulti.Ra.eth[1].mac 	backoffs 	0
scalar VoIPMCoAMulti.Ra.eth[1].encap 	"packets from higher layer" 	1
scalar VoIPMCoAMulti.Ra.eth[1].encap 	"frames from MAC" 	1
scalar VoIPMCoAMulti.Ra.eth[2].queue 	"packets received by queue" 	4
scalar VoIPMCoAMulti.Ra.eth[2].queue 	"packets dropped by queue" 	0
scalar VoIPMCoAMulti.Ra.eth[2].mac 	"simulated time" 	200
scalar VoIPMCoAMulti.Ra.eth[2].mac 	"txrate (Mb)" 	10
scalar VoIPMCoAMulti.Ra.eth[2].mac 	"full duplex" 	1
scalar VoIPMCoAMulti.Ra.eth[2].mac 	"frames sent" 	4
scalar VoIPMCoAMulti.Ra.eth[2].mac 	"frames rcvd" 	2
scalar VoIPMCoAMulti.Ra.eth[2].mac 	"bytes sent" 	260
scalar VoIPMCoAMulti.Ra.eth[2].mac 	"bytes rcvd" 	128
scalar VoIPMCoAMulti.Ra.eth[2].mac 	"frames from higher layer" 	4
scalar VoIPMCoAMulti.Ra.eth[2].mac 	"frames from higher layer dropped (iface down)" 	0
scalar VoIPMCoAMulti.Ra.eth[2].mac 	"frames dropped (bit error)" 	0
scalar VoIPMCoAMulti.Ra.eth[2].mac 	"frames dropped (not for us)" 	0
scalar VoIPMCoAMulti.Ra.eth[2].mac 	"frames passed up to HL" 	2
scalar VoIPMCoAMulti.Ra.eth[2].mac 	"PAUSE frames sent" 	0
scalar VoIPMCoAMulti.Ra.eth[2].mac 	"PAUSE frames rcvd" 	0
scalar VoIPMCoAMulti.Ra.eth[2].mac 	"frames/sec sent" 	0.02
scalar VoIPMCoAMulti.Ra.eth[2].mac 	"frames/sec rcvd" 	0.01
scalar VoIPMCoAMulti.Ra.eth[2].mac 	"bits/sec sent" 	10.4
scalar VoIPMCoAMulti.Ra.eth[2].mac 	"bits/sec rcvd" 	5.12
scalar VoIPMCoAMulti.Ra.eth[2].mac 	"rx channel idle (%)" 	99.9999424
scalar VoIPMCoAMulti.Ra.eth[2].mac 	"rx channel utilization (%)" 	5.76e-05
scalar VoIPMCoAMulti.Ra.eth[2].mac 	"rx channel collision (%)" 	0
scalar VoIPMCoAMulti.Ra.eth[2].mac 	collisions 	0
scalar VoIPMCoAMulti.Ra.eth[2].mac 	backoffs 	0
scalar VoIPMCoAMulti.Ra.eth[2].encap 	"packets from higher layer" 	4
scalar VoIPMCoAMulti.Ra.eth[2].encap 	"frames from MAC" 	2
scalar VoIPMCoAMulti.CN[0].pingApp 	"Pings sent" 	0
scalar VoIPMCoAMulti.CN[0].networkLayer.ipv6 	IPv6_numDropNonActive 	0
scalar VoIPMCoAMulti.CN[0].networkLayer.ipv6 	IPv6_Forwarded 	5
scalar VoIPMCoAMulti.CN[0].eth[0].queue 	"packets received by queue" 	5
scalar VoIPMCoAMulti.CN[0].eth[0].queue 	"packets dropped by queue" 	0
scalar VoIPMCoAMulti.CN[0].eth[0].mac 	"simulated time" 	200
scalar VoIPMCoAMulti.CN[0].eth[0].mac 	"txrate (Mb)" 	10
scalar VoIPMCoAMulti.CN[0].eth[0].mac 	"full duplex" 	0
scalar VoIPMCoAMulti.CN[0].eth[0].mac 	"frames sent" 	5
scalar VoIPMCoAMulti.CN[0].eth[0].mac 	"frames rcvd" 	6
scalar VoIPMCoAMulti.CN[0].eth[0].mac 	"bytes sent" 	320
scalar VoIPMCoAMulti.CN[0].eth[0].mac 	"bytes rcvd" 	388
scalar VoIPMCoAMulti.CN[0].eth[0].mac 	"frames from higher layer" 	5
scalar VoIPMCoAMulti.CN[0].eth[0].mac 	"frames from higher layer dropped (iface down)" 	0
scalar VoIPMCoAMulti.CN[0].eth[0].mac 	"frames dropped (bit error)" 	0
scalar VoIPMCoAMulti.CN[0].eth[0].mac 	"frames dropped (not for us)" 	0
scalar VoIPMCoAMulti.CN[0].eth[0].mac 	"frames passed up to HL" 	6
scalar VoIPMCoAMulti.CN[0].eth[0].mac 	"PAUSE frames sent" 	0
scalar VoIPMCoAMulti.CN[0].eth[0].mac 	"PAUSE frames rcvd" 	0
scalar VoIPMCoAMulti.CN[0].eth[0].mac 	"frames/sec sent" 	0.025
scalar VoIPMCoAMulti.CN[0].eth[0].mac 	"frames/sec rcvd" 	0.03
scalar VoIPMCoAMulti.CN[0].eth[0].mac 	"bits/sec sent" 	12.8
scalar VoIPMCoAMulti.CN[0].eth[0].mac 	"bits/sec rcvd" 	15.52
scalar VoIPMCoAMulti.CN[0].eth[0].mac 	"rx channel idle (%)" 	99.9996816
scalar VoIPMCoAMulti.CN[0].eth[0].mac 	"rx channel utilization (%)" 	0.0003184
scalar VoIPMCoAMulti.CN[0].eth[0].mac 	"rx channel collision (%)" 	0
scalar VoIPMCoAMulti.CN[0].eth[0].mac 	collisions 	0
scalar VoIPMCoAMulti.CN[0].eth[0].mac 	backoffs 	0
scalar VoIPMCoAMulti.CN[0].eth[0].encap 	"packets from higher layer" 	5
scalar VoIPMCoAMulti.CN[0].eth[0].encap 	"frames from MAC" 	6
scalar VoIPMCoAMulti.hub 	"simulated time" 	200
scalar VoIPMCoAMulti.hub 	"messages handled" 	13
scalar VoIPMCoAMulti.hub 	messages/sec 	0.065
scalar VoIPMCoAMulti.HA.pingApp 	"Pings sent" 	0
scalar VoIPMCoAMulti.HA.networkLayer.ipv6 	IPv6_numDropNonActive 	101
scalar VoIPMCoAMulti.HA.networkLayer.ipv6 	IPv6_Forwarded 	3930
scalar VoIPMCoAMulti.HA.eth[0].queue 	"packets received by queue" 	4
scalar VoIPMCoAMulti.HA.eth[0].queue 	"packets dropped by queue" 	0
scalar VoIPMCoAMulti.HA.eth[0].mac 	"simulated time" 	200
scalar VoIPMCoAMulti.HA.eth[0].mac 	"txrate (Mb)" 	10
scalar VoIPMCoAMulti.HA.eth[0].mac 	"full duplex" 	1
scalar VoIPMCoAMulti.HA.eth[0].mac 	"frames sent" 	4
scalar VoIPMCoAMulti.HA.eth[0].mac 	"frames rcvd" 	2
scalar VoIPMCoAMulti.HA.eth[0].mac 	"bytes sent" 	260
scalar VoIPMCoAMulti.HA.eth[0].mac 	"bytes rcvd" 	128
scalar VoIPMCoAMulti.HA.eth[0].mac 	"frames from higher layer" 	4
scalar VoIPMCoAMulti.HA.eth[0].mac 	"frames from higher layer dropped (iface down)" 	0
scalar VoIPMCoAMulti.HA.eth[0].mac 	"frames dropped (bit error)" 	0
scalar VoIPMCoAMulti.HA.eth[0].mac 	"frames dropped (not for us)" 	0
scalar VoIPMCoAMulti.HA.eth[0].mac 	"frames passed up to HL" 	2
scalar VoIPMCoAMulti.HA.eth[0].mac 	"PAUSE frames sent" 	0
scalar VoIPMCoAMulti.HA.eth[0].mac 	"PAUSE frames rcvd" 	0
scalar VoIPMCoAMulti.HA.eth[0].mac 	"frames/sec sent" 	0.02
scalar VoIPMCoAMulti.HA.eth[0].mac 	"frames/sec rcvd" 	0.01
scalar VoIPMCoAMulti.HA.eth[0].mac 	"bits/sec sent" 	10.4
scalar VoIPMCoAMulti.HA.eth[0].mac 	"bits/sec rcvd" 	5.12
scalar VoIPMCoAMulti.HA.eth[0].mac 	"rx channel idle (%)" 	99.9999424
scalar VoIPMCoAMulti.HA.eth[0].mac 	"rx channel utilization (%)" 	5.76e-05
scalar VoIPMCoAMulti.HA.eth[0].mac 	"rx channel collision (%)" 	0
scalar VoIPMCoAMulti.HA.eth[0].mac 	collisions 	0
scalar VoIPMCoAMulti.HA.eth[0].mac 	backoffs 	0
scalar VoIPMCoAMulti.HA.eth[0].encap 	"packets from higher layer" 	4
scalar VoIPMCoAMulti.HA.eth[0].encap 	"frames from MAC" 	2
scalar VoIPMCoAMulti.HA.eth[1].queue 	"packets received by queue" 	3926
scalar VoIPMCoAMulti.HA.eth[1].queue 	"packets dropped by queue" 	0
scalar VoIPMCoAMulti.HA.eth[1].mac 	"simulated time" 	200
scalar VoIPMCoAMulti.HA.eth[1].mac 	"txrate (Mb)" 	10
scalar VoIPMCoAMulti.HA.eth[1].mac 	"full duplex" 	1
scalar VoIPMCoAMulti.HA.eth[1].mac 	"frames sent" 	3926
scalar VoIPMCoAMulti.HA.eth[1].mac 	"frames rcvd" 	5
scalar VoIPMCoAMulti.HA.eth[1].mac 	"bytes sent" 	251264
scalar VoIPMCoAMulti.HA.eth[1].mac 	"bytes rcvd" 	216
scalar VoIPMCoAMulti.HA.eth[1].mac 	"frames from higher layer" 	3926
scalar VoIPMCoAMulti.HA.eth[1].mac 	"frames from higher layer dropped (iface down)" 	0
scalar VoIPMCoAMulti.HA.eth[1].mac 	"frames dropped (bit error)" 	0
scalar VoIPMCoAMulti.HA.eth[1].mac 	"frames dropped (not for us)" 	0
scalar VoIPMCoAMulti.HA.eth[1].mac 	"frames passed up to HL" 	5
scalar VoIPMCoAMulti.HA.eth[1].mac 	"PAUSE frames sent" 	0
scalar VoIPMCoAMulti.HA.eth[1].mac 	"PAUSE frames rcvd" 	0
scalar VoIPMCoAMulti.HA.eth[1].mac 	"frames/sec sent" 	19.63
scalar VoIPMCoAMulti.HA.eth[1].mac 	"frames/sec rcvd" 	0.025
scalar VoIPMCoAMulti.HA.eth[1].mac 	"bits/sec sent" 	10050.56
scalar VoIPMCoAMulti.HA.eth[1].mac 	"bits/sec rcvd" 	8.64
scalar VoIPMCoAMulti.HA.eth[1].mac 	"rx channel idle (%)" 	99.9998976
scalar VoIPMCoAMulti.HA.eth[1].mac 	"rx channel utilization (%)" 	0.0001024
scalar VoIPMCoAMulti.HA.eth[1].mac 	"rx channel collision (%)" 	0
scalar VoIPMCoAMulti.HA.eth[1].mac 	collisions 	0
scalar VoIPMCoAMulti.HA.eth[1].mac 	backoffs 	0
scalar VoIPMCoAMulti.HA.eth[1].encap 	"packets from higher layer" 	3926
scalar VoIPMCoAMulti.HA.eth[1].encap 	"frames from MAC" 	5
scalar VoIPMCoAMulti.AP_HA.wlan.mgmt 	"packets received by queue" 	5943
scalar VoIPMCoAMulti.AP_HA.wlan.mgmt 	"packets dropped by queue" 	0
scalar VoIPMCoAMulti.AP_HA.wlan.mac 	numSent 	14
scalar VoIPMCoAMulti.AP_HA.wlan.mac 	numSentWithoutRetry 	14
scalar VoIPMCoAMulti.AP_HA.wlan.mac 	numReceived 	16
scalar VoIPMCoAMulti.AP_HA.wlan.mac 	numSentBroadcast 	5929
scalar VoIPMCoAMulti.AP_HA.wlan.mac 	numReceivedBroadcast 	3
scalar VoIPMCoAMulti.AP_HA.wlan.mac 	numReceivedOther 	0
scalar VoIPMCoAMulti.AP_HA.wlan.mac 	numCollision 	0
scalar VoIPMCoAMulti.AP_HA.wlan.mac 	numGivenUp 	0
scalar VoIPMCoAMulti.AP_HA.wlan.mac 	numAckSend 	16
scalar VoIPMCoAMulti.AP_HA.wlan.mac 	numRetry 	0
scalar VoIPMCoAMulti.MN[0].pingApp 	"Pings sent" 	0
scalar VoIPMCoAMulti.MN[0].networkLayer.ipv6 	IPv6_numDropNonActive 	0
scalar VoIPMCoAMulti.MN[0].networkLayer.ipv6 	IPv6_Forwarded 	19
scalar VoIPMCoAMulti.MN[0].wlan[0].mgmt 	"packets received by queue" 	471
scalar VoIPMCoAMulti.MN[0].wlan[0].mgmt 	"packets dropped by queue" 	0
scalar VoIPMCoAMulti.MN[0].wlan[0].mac 	numSent 	12
scalar VoIPMCoAMulti.MN[0].wlan[0].mac 	numSentWithoutRetry 	12
scalar VoIPMCoAMulti.MN[0].wlan[0].mac 	numReceived 	10
scalar VoIPMCoAMulti.MN[0].wlan[0].mac 	numSentBroadcast 	459
scalar VoIPMCoAMulti.MN[0].wlan[0].mac 	numReceivedBroadcast 	2454
scalar VoIPMCoAMulti.MN[0].wlan[0].mac 	numReceivedOther 	2
scalar VoIPMCoAMulti.MN[0].wlan[0].mac 	numCollision 	0
scalar VoIPMCoAMulti.MN[0].wlan[0].mac 	numGivenUp 	0
scalar VoIPMCoAMulti.MN[0].wlan[0].mac 	numAckSend 	10
scalar VoIPMCoAMulti.MN[0].wlan[0].mac 	numRetry 	0
scalar VoIPMCoAMulti.MN[0].wlan[1].mgmt 	"packets received by queue" 	183
scalar VoIPMCoAMulti.MN[0].wlan[1].mgmt 	"packets dropped by queue" 	0
scalar VoIPMCoAMulti.MN[0].wlan[1].mac 	numSent 	9
scalar VoIPMCoAMulti.MN[0].wlan[1].mac 	numSentWithoutRetry 	9
scalar VoIPMCoAMulti.MN[0].wlan[1].mac 	numReceived 	11
scalar VoIPMCoAMulti.MN[0].wlan[1].mac 	numSentBroadcast 	174
scalar VoIPMCoAMulti.MN[0].wlan[1].mac 	numReceivedBroadcast 	4364
scalar VoIPMCoAMulti.MN[0].wlan[1].mac 	numReceivedOther 	0
scalar VoIPMCoAMulti.MN[0].wlan[1].mac 	numCollision 	0
scalar VoIPMCoAMulti.MN[0].wlan[1].mac 	numGivenUp 	0
scalar VoIPMCoAMulti.MN[0].wlan[1].mac 	numAckSend 	11
scalar VoIPMCoAMulti.MN[0].wlan[1].mac 	numRetry 	0
scalar VoIPMCoAMulti.MN[0].wlan[2].mgmt 	"packets received by queue" 	447
scalar VoIPMCoAMulti.MN[0].wlan[2].mgmt 	"packets dropped by queue" 	0
scalar VoIPMCoAMulti.MN[0].wlan[2].mac 	numSent 	9
scalar VoIPMCoAMulti.MN[0].wlan[2].mac 	numSentWithoutRetry 	9
scalar VoIPMCoAMulti.MN[0].wlan[2].mac 	numReceived 	10
scalar VoIPMCoAMulti.MN[0].wlan[2].mac 	numSentBroadcast 	438
scalar VoIPMCoAMulti.MN[0].wlan[2].mac 	numReceivedBroadcast 	2541
scalar VoIPMCoAMulti.MN[0].wlan[2].mac 	numReceivedOther 	0
scalar VoIPMCoAMulti.MN[0].wlan[2].mac 	numCollision 	0
scalar VoIPMCoAMulti.MN[0].wlan[2].mac 	numGivenUp 	0
scalar VoIPMCoAMulti.MN[0].wlan[2].mac 	numAckSend 	10
scalar VoIPMCoAMulti.MN[0].wlan[2].mac 	numRetry 	0
scalar VoIPMCoAMulti.MN[1].pingApp 	"Pings sent" 	0
scalar VoIPMCoAMulti.MN[1].networkLayer.ipv6 	IPv6_numDropNonActive 	0
scalar VoIPMCoAMulti.MN[1].networkLayer.ipv6 	IPv6_Forwarded 	4
scalar VoIPMCoAMulti.MN[1].wlan[0].mgmt 	"packets received by queue" 	5
scalar VoIPMCoAMulti.MN[1].wlan[0].mgmt 	"packets dropped by queue" 	0
scalar VoIPMCoAMulti.MN[1].wlan[0].mac 	numSent 	4
scalar VoIPMCoAMulti.MN[1].wlan[0].mac 	numSentWithoutRetry 	4
scalar VoIPMCoAMulti.MN[1].wlan[0].mac 	numReceived 	4
scalar VoIPMCoAMulti.MN[1].wlan[0].mac 	numSentBroadcast 	1
scalar VoIPMCoAMulti.MN[1].wlan[0].mac 	numReceivedBroadcast 	6050
scalar VoIPMCoAMulti.MN[1].wlan[0].mac 	numReceivedOther 	44
scalar VoIPMCoAMulti.MN[1].wlan[0].mac 	numCollision 	2
scalar VoIPMCoAMulti.MN[1].wlan[0].mac 	numGivenUp 	0
scalar VoIPMCoAMulti.MN[1].wlan[0].mac 	numAckSend 	4
scalar VoIPMCoAMulti.MN[1].wlan[0].mac 	numRetry 	0
scalar VoIPMCoAMulti.R1.networkLayer.ipv6 	IPv6_numDropNonActive 	405
scalar VoIPMCoAMulti.R1.networkLayer.ipv6 	IPv6_Forwarded 	7594
scalar VoIPMCoAMulti.R1.eth[0].queue 	"packets received by queue" 	1
scalar VoIPMCoAMulti.R1.eth[0].queue 	"packets dropped by queue" 	0
scalar VoIPMCoAMulti.R1.eth[0].mac 	"simulated time" 	200
scalar VoIPMCoAMulti.R1.eth[0].mac 	"txrate (Mb)" 	10
scalar VoIPMCoAMulti.R1.eth[0].mac 	"full duplex" 	1
scalar VoIPMCoAMulti.R1.eth[0].mac 	"frames sent" 	1
scalar VoIPMCoAMulti.R1.eth[0].mac 	"frames rcvd" 	1
scalar VoIPMCoAMulti.R1.eth[0].mac 	"bytes sent" 	64
scalar VoIPMCoAMulti.R1.eth[0].mac 	"bytes rcvd" 	64
scalar VoIPMCoAMulti.R1.eth[0].mac 	"frames from higher layer" 	1
scalar VoIPMCoAMulti.R1.eth[0].mac 	"frames from higher layer dropped (iface down)" 	0
scalar VoIPMCoAMulti.R1.eth[0].mac 	"frames dropped (bit error)" 	0
scalar VoIPMCoAMulti.R1.eth[0].mac 	"frames dropped (not for us)" 	0
scalar VoIPMCoAMulti.R1.eth[0].mac 	"frames passed up to HL" 	1
scalar VoIPMCoAMulti.R1.eth[0].mac 	"PAUSE frames sent" 	0
scalar VoIPMCoAMulti.R1.eth[0].mac 	"PAUSE frames rcvd" 	0
scalar VoIPMCoAMulti.R1.eth[0].mac 	"frames/sec sent" 	0.005
scalar VoIPMCoAMulti.R1.eth[0].mac 	"frames/sec rcvd" 	0.005
scalar VoIPMCoAMulti.R1.eth[0].mac 	"bits/sec sent" 	2.56
scalar VoIPMCoAMulti.R1.eth[0].mac 	"bits/sec rcvd" 	2.56
scalar VoIPMCoAMulti.R1.eth[0].mac 	"rx channel idle (%)" 	99.9999712
scalar VoIPMCoAMulti.R1.eth[0].mac 	"rx channel utilization (%)" 	2.88e-05
scalar VoIPMCoAMulti.R1.eth[0].mac 	"rx channel collision (%)" 	0
scalar VoIPMCoAMulti.R1.eth[0].mac 	collisions 	0
scalar VoIPMCoAMulti.R1.eth[0].mac 	backoffs 	0
scalar VoIPMCoAMulti.R1.eth[0].encap 	"packets from higher layer" 	1
scalar VoIPMCoAMulti.R1.eth[0].encap 	"frames from MAC" 	1
scalar VoIPMCoAMulti.R1.eth[1].queue 	"packets received by queue" 	3776
scalar VoIPMCoAMulti.R1.eth[1].queue 	"packets dropped by queue" 	0
scalar VoIPMCoAMulti.R1.eth[1].mac 	"simulated time" 	200
scalar VoIPMCoAMulti.R1.eth[1].mac 	"txrate (Mb)" 	10
scalar VoIPMCoAMulti.R1.eth[1].mac 	"full duplex" 	1
scalar VoIPMCoAMulti.R1.eth[1].mac 	"frames sent" 	3776
scalar VoIPMCoAMulti.R1.eth[1].mac 	"frames rcvd" 	1
scalar VoIPMCoAMulti.R1.eth[1].mac 	"bytes sent" 	241664
scalar VoIPMCoAMulti.R1.eth[1].mac 	"bytes rcvd" 	40
scalar VoIPMCoAMulti.R1.eth[1].mac 	"frames from higher layer" 	3776
scalar VoIPMCoAMulti.R1.eth[1].mac 	"frames from higher layer dropped (iface down)" 	0
scalar VoIPMCoAMulti.R1.eth[1].mac 	"frames dropped (bit error)" 	0
scalar VoIPMCoAMulti.R1.eth[1].mac 	"frames dropped (not for us)" 	0
scalar VoIPMCoAMulti.R1.eth[1].mac 	"frames passed up to HL" 	1
scalar VoIPMCoAMulti.R1.eth[1].mac 	"PAUSE frames sent" 	0
scalar VoIPMCoAMulti.R1.eth[1].mac 	"PAUSE frames rcvd" 	0
scalar VoIPMCoAMulti.R1.eth[1].mac 	"frames/sec sent" 	18.88
scalar VoIPMCoAMulti.R1.eth[1].mac 	"frames/sec rcvd" 	0.005
scalar VoIPMCoAMulti.R1.eth[1].mac 	"bits/sec sent" 	9666.56
scalar VoIPMCoAMulti.R1.eth[1].mac 	"bits/sec rcvd" 	1.6
scalar VoIPMCoAMulti.R1.eth[1].mac 	"rx channel idle (%)" 	99.9999808
scalar VoIPMCoAMulti.R1.eth[1].mac 	"rx channel utilization (%)" 	1.92e-05
scalar VoIPMCoAMulti.R1.eth[1].mac 	"rx channel collision (%)" 	0
scalar VoIPMCoAMulti.R1.eth[1].mac 	collisions 	0
scalar VoIPMCoAMulti.R1.eth[1].mac 	backoffs 	0
scalar VoIPMCoAMulti.R1.eth[1].encap 	"packets from higher layer" 	3776
scalar VoIPMCoAMulti.R1.eth[1].encap 	"frames from MAC" 	1
scalar VoIPMCoAMulti.R1.eth[2].queue 	"packets received by queue" 	3817
scalar VoIPMCoAMulti.R1.eth[2].queue 	"packets dropped by queue" 	0
scalar VoIPMCoAMulti.R1.eth[2].mac 	"simulated time" 	200
scalar VoIPMCoAMulti.R1.eth[2].mac 	"txrate (Mb)" 	10
scalar VoIPMCoAMulti.R1.eth[2].mac 	"full duplex" 	1
scalar VoIPMCoAMulti.R1.eth[2].mac 	"frames sent" 	3817
scalar VoIPMCoAMulti.R1.eth[2].mac 	"frames rcvd" 	1
scalar VoIPMCoAMulti.R1.eth[2].mac 	"bytes sent" 	244288
scalar VoIPMCoAMulti.R1.eth[2].mac 	"bytes rcvd" 	40
scalar VoIPMCoAMulti.R1.eth[2].mac 	"frames from higher layer" 	3817
scalar VoIPMCoAMulti.R1.eth[2].mac 	"frames from higher layer dropped (iface down)" 	0
scalar VoIPMCoAMulti.R1.eth[2].mac 	"frames dropped (bit error)" 	0
scalar VoIPMCoAMulti.R1.eth[2].mac 	"frames dropped (not for us)" 	0
scalar VoIPMCoAMulti.R1.eth[2].mac 	"frames passed up to HL" 	1
scalar VoIPMCoAMulti.R1.eth[2].mac 	"PAUSE frames sent" 	0
scalar VoIPMCoAMulti.R1.eth[2].mac 	"PAUSE frames rcvd" 	0
scalar VoIPMCoAMulti.R1.eth[2].mac 	"frames/sec sent" 	19.085
scalar VoIPMCoAMulti.R1.eth[2].mac 	"frames/sec rcvd" 	0.005
scalar VoIPMCoAMulti.R1.eth[2].mac 	"bits/sec sent" 	9771.52
scalar VoIPMCoAMulti.R1.eth[2].mac 	"bits/sec rcvd" 	1.6
scalar VoIPMCoAMulti.R1.eth[2].mac 	"rx channel idle (%)" 	99.9999808
scalar VoIPMCoAMulti.R1.eth[2].mac 	"rx channel utilization (%)" 	1.92e-05
scalar VoIPMCoAMulti.R1.eth[2].mac 	"rx channel collision (%)" 	0
scalar VoIPMCoAMulti.R1.eth[2].mac 	collisions 	0
scalar VoIPMCoAMulti.R1.eth[2].mac 	backoffs 	0
scalar VoIPMCoAMulti.R1.eth[2].encap 	"packets from higher layer" 	3817
scalar VoIPMCoAMulti.R1.eth[2].encap 	"frames from MAC" 	1
scalar VoIPMCoAMulti.AP_1.wlan.mgmt 	"packets received by queue" 	5787
scalar VoIPMCoAMulti.AP_1.wlan.mgmt 	"packets dropped by queue" 	0
scalar VoIPMCoAMulti.AP_1.wlan.mac 	numSent 	11
scalar VoIPMCoAMulti.AP_1.wlan.mac 	numSentWithoutRetry 	11
scalar VoIPMCoAMulti.AP_1.wlan.mac 	numReceived 	9
scalar VoIPMCoAMulti.AP_1.wlan.mac 	numSentBroadcast 	5776
scalar VoIPMCoAMulti.AP_1.wlan.mac 	numReceivedBroadcast 	3
scalar VoIPMCoAMulti.AP_1.wlan.mac 	numReceivedOther 	0
scalar VoIPMCoAMulti.AP_1.wlan.mac 	numCollision 	0
scalar VoIPMCoAMulti.AP_1.wlan.mac 	numGivenUp 	0
scalar VoIPMCoAMulti.AP_1.wlan.mac 	numAckSend 	9
scalar VoIPMCoAMulti.AP_1.wlan.mac 	numRetry 	0
scalar VoIPMCoAMulti.AP_2.wlan.mgmt 	"packets received by queue" 	5827
scalar VoIPMCoAMulti.AP_2.wlan.mgmt 	"packets dropped by queue" 	0
scalar VoIPMCoAMulti.AP_2.wlan.mac 	numSent 	10
scalar VoIPMCoAMulti.AP_2.wlan.mac 	numSentWithoutRetry 	10
scalar VoIPMCoAMulti.AP_2.wlan.mac 	numReceived 	9
scalar VoIPMCoAMulti.AP_2.wlan.mac 	numSentBroadcast 	5817
scalar VoIPMCoAMulti.AP_2.wlan.mac 	numReceivedBroadcast 	2
scalar VoIPMCoAMulti.AP_2.wlan.mac 	numReceivedOther 	0
scalar VoIPMCoAMulti.AP_2.wlan.mac 	numCollision 	0
scalar VoIPMCoAMulti.AP_2.wlan.mac 	numGivenUp 	0
scalar VoIPMCoAMulti.AP_2.wlan.mac 	numAckSend 	9
scalar VoIPMCoAMulti.AP_2.wlan.mac 	numRetry 	0
scalar VoIPMCoAMulti.Rb.networkLayer.ipv6 	IPv6_numDropNonActive 	0
scalar VoIPMCoAMulti.Rb.networkLayer.ipv6 	IPv6_Forwarded 	8
scalar VoIPMCoAMulti.Rb.eth[0].queue 	"packets received by queue" 	2
scalar VoIPMCoAMulti.Rb.eth[0].queue 	"packets dropped by queue" 	0
scalar VoIPMCoAMulti.Rb.eth[0].mac 	"simulated time" 	200
scalar VoIPMCoAMulti.Rb.eth[0].mac 	"txrate (Mb)" 	10
scalar VoIPMCoAMulti.Rb.eth[0].mac 	"full duplex" 	1
scalar VoIPMCoAMulti.Rb.eth[0].mac 	"frames sent" 	2
scalar VoIPMCoAMulti.Rb.eth[0].mac 	"frames rcvd" 	4
scalar VoIPMCoAMulti.Rb.eth[0].mac 	"bytes sent" 	128
scalar VoIPMCoAMulti.Rb.eth[0].mac 	"bytes rcvd" 	260
scalar VoIPMCoAMulti.Rb.eth[0].mac 	"frames from higher layer" 	2
scalar VoIPMCoAMulti.Rb.eth[0].mac 	"frames from higher layer dropped (iface down)" 	0
scalar VoIPMCoAMulti.Rb.eth[0].mac 	"frames dropped (bit error)" 	0
scalar VoIPMCoAMulti.Rb.eth[0].mac 	"frames dropped (not for us)" 	0
scalar VoIPMCoAMulti.Rb.eth[0].mac 	"frames passed up to HL" 	4
scalar VoIPMCoAMulti.Rb.eth[0].mac 	"PAUSE frames sent" 	0
scalar VoIPMCoAMulti.Rb.eth[0].mac 	"PAUSE frames rcvd" 	0
scalar VoIPMCoAMulti.Rb.eth[0].mac 	"frames/sec sent" 	0.01
scalar VoIPMCoAMulti.Rb.eth[0].mac 	"frames/sec rcvd" 	0.02
scalar VoIPMCoAMulti.Rb.eth[0].mac 	"bits/sec sent" 	5.12
scalar VoIPMCoAMulti.Rb.eth[0].mac 	"bits/sec rcvd" 	10.4
scalar VoIPMCoAMulti.Rb.eth[0].mac 	"rx channel idle (%)" 	99.9998832
scalar VoIPMCoAMulti.Rb.eth[0].mac 	"rx channel utilization (%)" 	0.0001168
scalar VoIPMCoAMulti.Rb.eth[0].mac 	"rx channel collision (%)" 	0
scalar VoIPMCoAMulti.Rb.eth[0].mac 	collisions 	0
scalar VoIPMCoAMulti.Rb.eth[0].mac 	backoffs 	0
scalar VoIPMCoAMulti.Rb.eth[0].encap 	"packets from higher layer" 	2
scalar VoIPMCoAMulti.Rb.eth[0].encap 	"frames from MAC" 	4
scalar VoIPMCoAMulti.Rb.eth[1].queue 	"packets received by queue" 	6
scalar VoIPMCoAMulti.Rb.eth[1].queue 	"packets dropped by queue" 	0
scalar VoIPMCoAMulti.Rb.eth[1].mac 	"simulated time" 	200
scalar VoIPMCoAMulti.Rb.eth[1].mac 	"txrate (Mb)" 	10
scalar VoIPMCoAMulti.Rb.eth[1].mac 	"full duplex" 	0
scalar VoIPMCoAMulti.Rb.eth[1].mac 	"frames sent" 	6
scalar VoIPMCoAMulti.Rb.eth[1].mac 	"frames rcvd" 	5
scalar VoIPMCoAMulti.Rb.eth[1].mac 	"bytes sent" 	388
scalar VoIPMCoAMulti.Rb.eth[1].mac 	"bytes rcvd" 	320
scalar VoIPMCoAMulti.Rb.eth[1].mac 	"frames from higher layer" 	6
scalar VoIPMCoAMulti.Rb.eth[1].mac 	"frames from higher layer dropped (iface down)" 	0
scalar VoIPMCoAMulti.Rb.eth[1].mac 	"frames dropped (bit error)" 	0
scalar VoIPMCoAMulti.Rb.eth[1].mac 	"frames dropped (not for us)" 	0
scalar VoIPMCoAMulti.Rb.eth[1].mac 	"frames passed up to HL" 	5
scalar VoIPMCoAMulti.Rb.eth[1].mac 	"PAUSE frames sent" 	0
scalar VoIPMCoAMulti.Rb.eth[1].mac 	"PAUSE frames rcvd" 	0
scalar VoIPMCoAMulti.Rb.eth[1].mac 	"frames/sec sent" 	0.03
scalar VoIPMCoAMulti.Rb.eth[1].mac 	"frames/sec rcvd" 	0.025
scalar VoIPMCoAMulti.Rb.eth[1].mac 	"bits/sec sent" 	15.52
scalar VoIPMCoAMulti.Rb.eth[1].mac 	"bits/sec rcvd" 	12.8
scalar VoIPMCoAMulti.Rb.eth[1].mac 	"rx channel idle (%)" 	99.9996816
scalar VoIPMCoAMulti.Rb.eth[1].mac 	"rx channel utilization (%)" 	0.0003184
scalar VoIPMCoAMulti.Rb.eth[1].mac 	"rx channel collision (%)" 	0
scalar VoIPMCoAMulti.Rb.eth[1].mac 	collisions 	0
scalar VoIPMCoAMulti.Rb.eth[1].mac 	backoffs 	0
scalar VoIPMCoAMulti.Rb.eth[1].encap 	"packets from higher layer" 	6
scalar VoIPMCoAMulti.Rb.eth[1].encap 	"frames from MAC" 	5
