version 2
run MCoA_ALL-0-20150318-15:42:49-11770
attr configname MCoA_ALL
attr datetime 20150318-15:42:49
attr experiment MCoA_ALL
attr inifile VoIPMCoACN.ini
attr iterationvars ""
attr iterationvars2 $repetition=0
attr measurement ""
attr network VoIPMCoAMulti
attr processid 11770
attr repetition 0
attr replication #0
attr resultdir results
attr runnumber 0
attr seedset 0

scalar VoIPMCoAMulti.Ra.networkLayer.ipv6 	IPv6_numDropNonActive 	0
scalar VoIPMCoAMulti.Ra.networkLayer.ipv6 	IPv6_Forwarded 	303
scalar VoIPMCoAMulti.Ra.eth[0].queue 	"packets received by queue" 	49
scalar VoIPMCoAMulti.Ra.eth[0].queue 	"packets dropped by queue" 	0
scalar VoIPMCoAMulti.Ra.eth[0].mac 	"simulated time" 	200
scalar VoIPMCoAMulti.Ra.eth[0].mac 	"txrate (Mb)" 	10
scalar VoIPMCoAMulti.Ra.eth[0].mac 	"full duplex" 	1
scalar VoIPMCoAMulti.Ra.eth[0].mac 	"frames sent" 	49
scalar VoIPMCoAMulti.Ra.eth[0].mac 	"frames rcvd" 	20
scalar VoIPMCoAMulti.Ra.eth[0].mac 	"bytes sent" 	16902
scalar VoIPMCoAMulti.Ra.eth[0].mac 	"bytes rcvd" 	2698
scalar VoIPMCoAMulti.Ra.eth[0].mac 	"frames from higher layer" 	49
scalar VoIPMCoAMulti.Ra.eth[0].mac 	"frames from higher layer dropped (iface down)" 	0
scalar VoIPMCoAMulti.Ra.eth[0].mac 	"frames dropped (bit error)" 	0
scalar VoIPMCoAMulti.Ra.eth[0].mac 	"frames dropped (not for us)" 	0
scalar VoIPMCoAMulti.Ra.eth[0].mac 	"frames passed up to HL" 	20
scalar VoIPMCoAMulti.Ra.eth[0].mac 	"PAUSE frames sent" 	0
scalar VoIPMCoAMulti.Ra.eth[0].mac 	"PAUSE frames rcvd" 	0
scalar VoIPMCoAMulti.Ra.eth[0].mac 	"frames/sec sent" 	0.245
scalar VoIPMCoAMulti.Ra.eth[0].mac 	"frames/sec rcvd" 	0.1
scalar VoIPMCoAMulti.Ra.eth[0].mac 	"bits/sec sent" 	676.08
scalar VoIPMCoAMulti.Ra.eth[0].mac 	"bits/sec rcvd" 	107.92
scalar VoIPMCoAMulti.Ra.eth[0].mac 	"rx channel idle (%)" 	99.9988568
scalar VoIPMCoAMulti.Ra.eth[0].mac 	"rx channel utilization (%)" 	0.0011432
scalar VoIPMCoAMulti.Ra.eth[0].mac 	"rx channel collision (%)" 	0
scalar VoIPMCoAMulti.Ra.eth[0].mac 	collisions 	0
scalar VoIPMCoAMulti.Ra.eth[0].mac 	backoffs 	0
scalar VoIPMCoAMulti.Ra.eth[0].encap 	"packets from higher layer" 	49
scalar VoIPMCoAMulti.Ra.eth[0].encap 	"frames from MAC" 	20
scalar VoIPMCoAMulti.Ra.eth[1].queue 	"packets received by queue" 	242
scalar VoIPMCoAMulti.Ra.eth[1].queue 	"packets dropped by queue" 	0
scalar VoIPMCoAMulti.Ra.eth[1].mac 	"simulated time" 	200
scalar VoIPMCoAMulti.Ra.eth[1].mac 	"txrate (Mb)" 	10
scalar VoIPMCoAMulti.Ra.eth[1].mac 	"full duplex" 	1
scalar VoIPMCoAMulti.Ra.eth[1].mac 	"frames sent" 	242
scalar VoIPMCoAMulti.Ra.eth[1].mac 	"frames rcvd" 	18
scalar VoIPMCoAMulti.Ra.eth[1].mac 	"bytes sent" 	105488
scalar VoIPMCoAMulti.Ra.eth[1].mac 	"bytes rcvd" 	1846
scalar VoIPMCoAMulti.Ra.eth[1].mac 	"frames from higher layer" 	242
scalar VoIPMCoAMulti.Ra.eth[1].mac 	"frames from higher layer dropped (iface down)" 	0
scalar VoIPMCoAMulti.Ra.eth[1].mac 	"frames dropped (bit error)" 	0
scalar VoIPMCoAMulti.Ra.eth[1].mac 	"frames dropped (not for us)" 	0
scalar VoIPMCoAMulti.Ra.eth[1].mac 	"frames passed up to HL" 	18
scalar VoIPMCoAMulti.Ra.eth[1].mac 	"PAUSE frames sent" 	0
scalar VoIPMCoAMulti.Ra.eth[1].mac 	"PAUSE frames rcvd" 	0
scalar VoIPMCoAMulti.Ra.eth[1].mac 	"frames/sec sent" 	1.21
scalar VoIPMCoAMulti.Ra.eth[1].mac 	"frames/sec rcvd" 	0.09
scalar VoIPMCoAMulti.Ra.eth[1].mac 	"bits/sec sent" 	4219.52
scalar VoIPMCoAMulti.Ra.eth[1].mac 	"bits/sec rcvd" 	73.84
scalar VoIPMCoAMulti.Ra.eth[1].mac 	"rx channel idle (%)" 	99.999204
scalar VoIPMCoAMulti.Ra.eth[1].mac 	"rx channel utilization (%)" 	0.000796
scalar VoIPMCoAMulti.Ra.eth[1].mac 	"rx channel collision (%)" 	0
scalar VoIPMCoAMulti.Ra.eth[1].mac 	collisions 	0
scalar VoIPMCoAMulti.Ra.eth[1].mac 	backoffs 	0
scalar VoIPMCoAMulti.Ra.eth[1].encap 	"packets from higher layer" 	242
scalar VoIPMCoAMulti.Ra.eth[1].encap 	"frames from MAC" 	18
scalar VoIPMCoAMulti.Ra.eth[2].queue 	"packets received by queue" 	12
scalar VoIPMCoAMulti.Ra.eth[2].queue 	"packets dropped by queue" 	0
scalar VoIPMCoAMulti.Ra.eth[2].mac 	"simulated time" 	200
scalar VoIPMCoAMulti.Ra.eth[2].mac 	"txrate (Mb)" 	10
scalar VoIPMCoAMulti.Ra.eth[2].mac 	"full duplex" 	1
scalar VoIPMCoAMulti.Ra.eth[2].mac 	"frames sent" 	12
scalar VoIPMCoAMulti.Ra.eth[2].mac 	"frames rcvd" 	265
scalar VoIPMCoAMulti.Ra.eth[2].mac 	"bytes sent" 	1046
scalar VoIPMCoAMulti.Ra.eth[2].mac 	"bytes rcvd" 	118892
scalar VoIPMCoAMulti.Ra.eth[2].mac 	"frames from higher layer" 	12
scalar VoIPMCoAMulti.Ra.eth[2].mac 	"frames from higher layer dropped (iface down)" 	0
scalar VoIPMCoAMulti.Ra.eth[2].mac 	"frames dropped (bit error)" 	0
scalar VoIPMCoAMulti.Ra.eth[2].mac 	"frames dropped (not for us)" 	0
scalar VoIPMCoAMulti.Ra.eth[2].mac 	"frames passed up to HL" 	265
scalar VoIPMCoAMulti.Ra.eth[2].mac 	"PAUSE frames sent" 	0
scalar VoIPMCoAMulti.Ra.eth[2].mac 	"PAUSE frames rcvd" 	0
scalar VoIPMCoAMulti.Ra.eth[2].mac 	"frames/sec sent" 	0.06
scalar VoIPMCoAMulti.Ra.eth[2].mac 	"frames/sec rcvd" 	1.325
scalar VoIPMCoAMulti.Ra.eth[2].mac 	"bits/sec sent" 	41.84
scalar VoIPMCoAMulti.Ra.eth[2].mac 	"bits/sec rcvd" 	4755.68
scalar VoIPMCoAMulti.Ra.eth[2].mac 	"rx channel idle (%)" 	99.9515952
scalar VoIPMCoAMulti.Ra.eth[2].mac 	"rx channel utilization (%)" 	0.0484048
scalar VoIPMCoAMulti.Ra.eth[2].mac 	"rx channel collision (%)" 	0
scalar VoIPMCoAMulti.Ra.eth[2].mac 	collisions 	0
scalar VoIPMCoAMulti.Ra.eth[2].mac 	backoffs 	0
scalar VoIPMCoAMulti.Ra.eth[2].encap 	"packets from higher layer" 	12
scalar VoIPMCoAMulti.Ra.eth[2].encap 	"frames from MAC" 	265
scalar VoIPMCoAMulti.CN[0].pingApp 	"Pings sent" 	0
scalar VoIPMCoAMulti.CN[0].networkLayer.ipv6 	IPv6_numDropNonActive 	0
scalar VoIPMCoAMulti.CN[0].networkLayer.ipv6 	IPv6_Forwarded 	274
scalar VoIPMCoAMulti.CN[0].eth[0].queue 	"packets received by queue" 	274
scalar VoIPMCoAMulti.CN[0].eth[0].queue 	"packets dropped by queue" 	0
scalar VoIPMCoAMulti.CN[0].eth[0].mac 	"simulated time" 	200
scalar VoIPMCoAMulti.CN[0].eth[0].mac 	"txrate (Mb)" 	10
scalar VoIPMCoAMulti.CN[0].eth[0].mac 	"full duplex" 	0
scalar VoIPMCoAMulti.CN[0].eth[0].mac 	"frames sent" 	274
scalar VoIPMCoAMulti.CN[0].eth[0].mac 	"frames rcvd" 	15
scalar VoIPMCoAMulti.CN[0].eth[0].mac 	"bytes sent" 	121478
scalar VoIPMCoAMulti.CN[0].eth[0].mac 	"bytes rcvd" 	1238
scalar VoIPMCoAMulti.CN[0].eth[0].mac 	"frames from higher layer" 	274
scalar VoIPMCoAMulti.CN[0].eth[0].mac 	"frames from higher layer dropped (iface down)" 	0
scalar VoIPMCoAMulti.CN[0].eth[0].mac 	"frames dropped (bit error)" 	0
scalar VoIPMCoAMulti.CN[0].eth[0].mac 	"frames dropped (not for us)" 	0
scalar VoIPMCoAMulti.CN[0].eth[0].mac 	"frames passed up to HL" 	15
scalar VoIPMCoAMulti.CN[0].eth[0].mac 	"PAUSE frames sent" 	0
scalar VoIPMCoAMulti.CN[0].eth[0].mac 	"PAUSE frames rcvd" 	0
scalar VoIPMCoAMulti.CN[0].eth[0].mac 	"frames/sec sent" 	1.37
scalar VoIPMCoAMulti.CN[0].eth[0].mac 	"frames/sec rcvd" 	0.075
scalar VoIPMCoAMulti.CN[0].eth[0].mac 	"bits/sec sent" 	4859.12
scalar VoIPMCoAMulti.CN[0].eth[0].mac 	"bits/sec rcvd" 	49.52
scalar VoIPMCoAMulti.CN[0].eth[0].mac 	"rx channel idle (%)" 	99.9499808
scalar VoIPMCoAMulti.CN[0].eth[0].mac 	"rx channel utilization (%)" 	0.0500112
scalar VoIPMCoAMulti.CN[0].eth[0].mac 	"rx channel collision (%)" 	8e-06
scalar VoIPMCoAMulti.CN[0].eth[0].mac 	collisions 	5
scalar VoIPMCoAMulti.CN[0].eth[0].mac 	backoffs 	0
scalar VoIPMCoAMulti.CN[0].eth[0].encap 	"packets from higher layer" 	274
scalar VoIPMCoAMulti.CN[0].eth[0].encap 	"frames from MAC" 	15
scalar VoIPMCoAMulti.hub 	"simulated time" 	200
scalar VoIPMCoAMulti.hub 	"messages handled" 	301
scalar VoIPMCoAMulti.hub 	messages/sec 	1.505
scalar VoIPMCoAMulti.HA.pingApp 	"Pings sent" 	0
scalar VoIPMCoAMulti.HA.networkLayer.ipv6 	IPv6_numDropNonActive 	100
scalar VoIPMCoAMulti.HA.networkLayer.ipv6 	IPv6_Forwarded 	3963
scalar VoIPMCoAMulti.HA.eth[0].queue 	"packets received by queue" 	20
scalar VoIPMCoAMulti.HA.eth[0].queue 	"packets dropped by queue" 	0
scalar VoIPMCoAMulti.HA.eth[0].mac 	"simulated time" 	200
scalar VoIPMCoAMulti.HA.eth[0].mac 	"txrate (Mb)" 	10
scalar VoIPMCoAMulti.HA.eth[0].mac 	"full duplex" 	1
scalar VoIPMCoAMulti.HA.eth[0].mac 	"frames sent" 	20
scalar VoIPMCoAMulti.HA.eth[0].mac 	"frames rcvd" 	49
scalar VoIPMCoAMulti.HA.eth[0].mac 	"bytes sent" 	2698
scalar VoIPMCoAMulti.HA.eth[0].mac 	"bytes rcvd" 	16902
scalar VoIPMCoAMulti.HA.eth[0].mac 	"frames from higher layer" 	20
scalar VoIPMCoAMulti.HA.eth[0].mac 	"frames from higher layer dropped (iface down)" 	0
scalar VoIPMCoAMulti.HA.eth[0].mac 	"frames dropped (bit error)" 	0
scalar VoIPMCoAMulti.HA.eth[0].mac 	"frames dropped (not for us)" 	0
scalar VoIPMCoAMulti.HA.eth[0].mac 	"frames passed up to HL" 	49
scalar VoIPMCoAMulti.HA.eth[0].mac 	"PAUSE frames sent" 	0
scalar VoIPMCoAMulti.HA.eth[0].mac 	"PAUSE frames rcvd" 	0
scalar VoIPMCoAMulti.HA.eth[0].mac 	"frames/sec sent" 	0.1
scalar VoIPMCoAMulti.HA.eth[0].mac 	"frames/sec rcvd" 	0.245
scalar VoIPMCoAMulti.HA.eth[0].mac 	"bits/sec sent" 	107.92
scalar VoIPMCoAMulti.HA.eth[0].mac 	"bits/sec rcvd" 	676.08
scalar VoIPMCoAMulti.HA.eth[0].mac 	"rx channel idle (%)" 	99.9930824
scalar VoIPMCoAMulti.HA.eth[0].mac 	"rx channel utilization (%)" 	0.0069176
scalar VoIPMCoAMulti.HA.eth[0].mac 	"rx channel collision (%)" 	0
scalar VoIPMCoAMulti.HA.eth[0].mac 	collisions 	0
scalar VoIPMCoAMulti.HA.eth[0].mac 	backoffs 	0
scalar VoIPMCoAMulti.HA.eth[0].encap 	"packets from higher layer" 	20
scalar VoIPMCoAMulti.HA.eth[0].encap 	"frames from MAC" 	49
scalar VoIPMCoAMulti.HA.eth[1].queue 	"packets received by queue" 	3943
scalar VoIPMCoAMulti.HA.eth[1].queue 	"packets dropped by queue" 	0
scalar VoIPMCoAMulti.HA.eth[1].mac 	"simulated time" 	200
scalar VoIPMCoAMulti.HA.eth[1].mac 	"txrate (Mb)" 	10
scalar VoIPMCoAMulti.HA.eth[1].mac 	"full duplex" 	1
scalar VoIPMCoAMulti.HA.eth[1].mac 	"frames sent" 	3943
scalar VoIPMCoAMulti.HA.eth[1].mac 	"frames rcvd" 	6
scalar VoIPMCoAMulti.HA.eth[1].mac 	"bytes sent" 	264814
scalar VoIPMCoAMulti.HA.eth[1].mac 	"bytes rcvd" 	256
scalar VoIPMCoAMulti.HA.eth[1].mac 	"frames from higher layer" 	3943
scalar VoIPMCoAMulti.HA.eth[1].mac 	"frames from higher layer dropped (iface down)" 	0
scalar VoIPMCoAMulti.HA.eth[1].mac 	"frames dropped (bit error)" 	0
scalar VoIPMCoAMulti.HA.eth[1].mac 	"frames dropped (not for us)" 	0
scalar VoIPMCoAMulti.HA.eth[1].mac 	"frames passed up to HL" 	6
scalar VoIPMCoAMulti.HA.eth[1].mac 	"PAUSE frames sent" 	0
scalar VoIPMCoAMulti.HA.eth[1].mac 	"PAUSE frames rcvd" 	0
scalar VoIPMCoAMulti.HA.eth[1].mac 	"frames/sec sent" 	19.715
scalar VoIPMCoAMulti.HA.eth[1].mac 	"frames/sec rcvd" 	0.03
scalar VoIPMCoAMulti.HA.eth[1].mac 	"bits/sec sent" 	10592.56
scalar VoIPMCoAMulti.HA.eth[1].mac 	"bits/sec rcvd" 	10.24
scalar VoIPMCoAMulti.HA.eth[1].mac 	"rx channel idle (%)" 	99.9998784
scalar VoIPMCoAMulti.HA.eth[1].mac 	"rx channel utilization (%)" 	0.0001216
scalar VoIPMCoAMulti.HA.eth[1].mac 	"rx channel collision (%)" 	0
scalar VoIPMCoAMulti.HA.eth[1].mac 	collisions 	0
scalar VoIPMCoAMulti.HA.eth[1].mac 	backoffs 	0
scalar VoIPMCoAMulti.HA.eth[1].encap 	"packets from higher layer" 	3943
scalar VoIPMCoAMulti.HA.eth[1].encap 	"frames from MAC" 	6
scalar VoIPMCoAMulti.AP_HA.wlan.mgmt 	"packets received by queue" 	5968
scalar VoIPMCoAMulti.AP_HA.wlan.mgmt 	"packets dropped by queue" 	0
scalar VoIPMCoAMulti.AP_HA.wlan.mac 	numSent 	53
scalar VoIPMCoAMulti.AP_HA.wlan.mac 	numSentWithoutRetry 	53
scalar VoIPMCoAMulti.AP_HA.wlan.mac 	numReceived 	22
scalar VoIPMCoAMulti.AP_HA.wlan.mac 	numSentBroadcast 	5912
scalar VoIPMCoAMulti.AP_HA.wlan.mac 	numReceivedBroadcast 	5
scalar VoIPMCoAMulti.AP_HA.wlan.mac 	numReceivedOther 	0
scalar VoIPMCoAMulti.AP_HA.wlan.mac 	numCollision 	0
scalar VoIPMCoAMulti.AP_HA.wlan.mac 	numGivenUp 	3
scalar VoIPMCoAMulti.AP_HA.wlan.mac 	numAckSend 	22
scalar VoIPMCoAMulti.AP_HA.wlan.mac 	numRetry 	18
scalar VoIPMCoAMulti.MN[0].pingApp 	"Pings sent" 	0
scalar VoIPMCoAMulti.MN[0].networkLayer.ipv6 	IPv6_numDropNonActive 	0
scalar VoIPMCoAMulti.MN[0].networkLayer.ipv6 	IPv6_Forwarded 	37
scalar VoIPMCoAMulti.MN[0].wlan[0].mgmt 	"packets received by queue" 	496
scalar VoIPMCoAMulti.MN[0].wlan[0].mgmt 	"packets dropped by queue" 	0
scalar VoIPMCoAMulti.MN[0].wlan[0].mac 	numSent 	18
scalar VoIPMCoAMulti.MN[0].wlan[0].mac 	numSentWithoutRetry 	18
scalar VoIPMCoAMulti.MN[0].wlan[0].mac 	numReceived 	49
scalar VoIPMCoAMulti.MN[0].wlan[0].mac 	numSentBroadcast 	478
scalar VoIPMCoAMulti.MN[0].wlan[0].mac 	numReceivedBroadcast 	2331
scalar VoIPMCoAMulti.MN[0].wlan[0].mac 	numReceivedOther 	2
scalar VoIPMCoAMulti.MN[0].wlan[0].mac 	numCollision 	0
scalar VoIPMCoAMulti.MN[0].wlan[0].mac 	numGivenUp 	0
scalar VoIPMCoAMulti.MN[0].wlan[0].mac 	numAckSend 	49
scalar VoIPMCoAMulti.MN[0].wlan[0].mac 	numRetry 	0
scalar VoIPMCoAMulti.MN[0].wlan[1].mgmt 	"packets received by queue" 	276
scalar VoIPMCoAMulti.MN[0].wlan[1].mgmt 	"packets dropped by queue" 	0
scalar VoIPMCoAMulti.MN[0].wlan[1].mac 	numSent 	23
scalar VoIPMCoAMulti.MN[0].wlan[1].mac 	numSentWithoutRetry 	23
scalar VoIPMCoAMulti.MN[0].wlan[1].mac 	numReceived 	148
scalar VoIPMCoAMulti.MN[0].wlan[1].mac 	numSentBroadcast 	253
scalar VoIPMCoAMulti.MN[0].wlan[1].mac 	numReceivedBroadcast 	3785
scalar VoIPMCoAMulti.MN[0].wlan[1].mac 	numReceivedOther 	0
scalar VoIPMCoAMulti.MN[0].wlan[1].mac 	numCollision 	0
scalar VoIPMCoAMulti.MN[0].wlan[1].mac 	numGivenUp 	0
scalar VoIPMCoAMulti.MN[0].wlan[1].mac 	numAckSend 	148
scalar VoIPMCoAMulti.MN[0].wlan[1].mac 	numRetry 	0
scalar VoIPMCoAMulti.MN[0].wlan[2].mgmt 	"packets received by queue" 	526
scalar VoIPMCoAMulti.MN[0].wlan[2].mgmt 	"packets dropped by queue" 	0
scalar VoIPMCoAMulti.MN[0].wlan[2].mac 	numSent 	17
scalar VoIPMCoAMulti.MN[0].wlan[2].mac 	numSentWithoutRetry 	17
scalar VoIPMCoAMulti.MN[0].wlan[2].mac 	numReceived 	47
scalar VoIPMCoAMulti.MN[0].wlan[2].mac 	numSentBroadcast 	509
scalar VoIPMCoAMulti.MN[0].wlan[2].mac 	numReceivedBroadcast 	2004
scalar VoIPMCoAMulti.MN[0].wlan[2].mac 	numReceivedOther 	0
scalar VoIPMCoAMulti.MN[0].wlan[2].mac 	numCollision 	0
scalar VoIPMCoAMulti.MN[0].wlan[2].mac 	numGivenUp 	0
scalar VoIPMCoAMulti.MN[0].wlan[2].mac 	numAckSend 	47
scalar VoIPMCoAMulti.MN[0].wlan[2].mac 	numRetry 	0
scalar VoIPMCoAMulti.MN[1].pingApp 	"Pings sent" 	0
scalar VoIPMCoAMulti.MN[1].networkLayer.ipv6 	IPv6_numDropNonActive 	0
scalar VoIPMCoAMulti.MN[1].networkLayer.ipv6 	IPv6_Forwarded 	4
scalar VoIPMCoAMulti.MN[1].wlan[0].mgmt 	"packets received by queue" 	5
scalar VoIPMCoAMulti.MN[1].wlan[0].mgmt 	"packets dropped by queue" 	0
scalar VoIPMCoAMulti.MN[1].wlan[0].mac 	numSent 	4
scalar VoIPMCoAMulti.MN[1].wlan[0].mac 	numSentWithoutRetry 	4
scalar VoIPMCoAMulti.MN[1].wlan[0].mac 	numReceived 	4
scalar VoIPMCoAMulti.MN[1].wlan[0].mac 	numSentBroadcast 	1
scalar VoIPMCoAMulti.MN[1].wlan[0].mac 	numReceivedBroadcast 	5988
scalar VoIPMCoAMulti.MN[1].wlan[0].mac 	numReceivedOther 	155
scalar VoIPMCoAMulti.MN[1].wlan[0].mac 	numCollision 	0
scalar VoIPMCoAMulti.MN[1].wlan[0].mac 	numGivenUp 	0
scalar VoIPMCoAMulti.MN[1].wlan[0].mac 	numAckSend 	4
scalar VoIPMCoAMulti.MN[1].wlan[0].mac 	numRetry 	0
scalar VoIPMCoAMulti.R1.networkLayer.ipv6 	IPv6_numDropNonActive 	457
scalar VoIPMCoAMulti.R1.networkLayer.ipv6 	IPv6_Forwarded 	7841
scalar VoIPMCoAMulti.R1.eth[0].queue 	"packets received by queue" 	18
scalar VoIPMCoAMulti.R1.eth[0].queue 	"packets dropped by queue" 	0
scalar VoIPMCoAMulti.R1.eth[0].mac 	"simulated time" 	200
scalar VoIPMCoAMulti.R1.eth[0].mac 	"txrate (Mb)" 	10
scalar VoIPMCoAMulti.R1.eth[0].mac 	"full duplex" 	1
scalar VoIPMCoAMulti.R1.eth[0].mac 	"frames sent" 	18
scalar VoIPMCoAMulti.R1.eth[0].mac 	"frames rcvd" 	242
scalar VoIPMCoAMulti.R1.eth[0].mac 	"bytes sent" 	1846
scalar VoIPMCoAMulti.R1.eth[0].mac 	"bytes rcvd" 	105488
scalar VoIPMCoAMulti.R1.eth[0].mac 	"frames from higher layer" 	18
scalar VoIPMCoAMulti.R1.eth[0].mac 	"frames from higher layer dropped (iface down)" 	0
scalar VoIPMCoAMulti.R1.eth[0].mac 	"frames dropped (bit error)" 	0
scalar VoIPMCoAMulti.R1.eth[0].mac 	"frames dropped (not for us)" 	0
scalar VoIPMCoAMulti.R1.eth[0].mac 	"frames passed up to HL" 	242
scalar VoIPMCoAMulti.R1.eth[0].mac 	"PAUSE frames sent" 	0
scalar VoIPMCoAMulti.R1.eth[0].mac 	"PAUSE frames rcvd" 	0
scalar VoIPMCoAMulti.R1.eth[0].mac 	"frames/sec sent" 	0.09
scalar VoIPMCoAMulti.R1.eth[0].mac 	"frames/sec rcvd" 	1.21
scalar VoIPMCoAMulti.R1.eth[0].mac 	"bits/sec sent" 	73.84
scalar VoIPMCoAMulti.R1.eth[0].mac 	"bits/sec rcvd" 	4219.52
scalar VoIPMCoAMulti.R1.eth[0].mac 	"rx channel idle (%)" 	99.9570304
scalar VoIPMCoAMulti.R1.eth[0].mac 	"rx channel utilization (%)" 	0.0429696
scalar VoIPMCoAMulti.R1.eth[0].mac 	"rx channel collision (%)" 	0
scalar VoIPMCoAMulti.R1.eth[0].mac 	collisions 	0
scalar VoIPMCoAMulti.R1.eth[0].mac 	backoffs 	0
scalar VoIPMCoAMulti.R1.eth[0].encap 	"packets from higher layer" 	18
scalar VoIPMCoAMulti.R1.eth[0].encap 	"frames from MAC" 	242
scalar VoIPMCoAMulti.R1.eth[1].queue 	"packets received by queue" 	3949
scalar VoIPMCoAMulti.R1.eth[1].queue 	"packets dropped by queue" 	0
scalar VoIPMCoAMulti.R1.eth[1].mac 	"simulated time" 	200
scalar VoIPMCoAMulti.R1.eth[1].mac 	"txrate (Mb)" 	10
scalar VoIPMCoAMulti.R1.eth[1].mac 	"full duplex" 	1
scalar VoIPMCoAMulti.R1.eth[1].mac 	"frames sent" 	3949
scalar VoIPMCoAMulti.R1.eth[1].mac 	"frames rcvd" 	10
scalar VoIPMCoAMulti.R1.eth[1].mac 	"bytes sent" 	302176
scalar VoIPMCoAMulti.R1.eth[1].mac 	"bytes rcvd" 	756
scalar VoIPMCoAMulti.R1.eth[1].mac 	"frames from higher layer" 	3949
scalar VoIPMCoAMulti.R1.eth[1].mac 	"frames from higher layer dropped (iface down)" 	0
scalar VoIPMCoAMulti.R1.eth[1].mac 	"frames dropped (bit error)" 	0
scalar VoIPMCoAMulti.R1.eth[1].mac 	"frames dropped (not for us)" 	0
scalar VoIPMCoAMulti.R1.eth[1].mac 	"frames passed up to HL" 	10
scalar VoIPMCoAMulti.R1.eth[1].mac 	"PAUSE frames sent" 	0
scalar VoIPMCoAMulti.R1.eth[1].mac 	"PAUSE frames rcvd" 	0
scalar VoIPMCoAMulti.R1.eth[1].mac 	"frames/sec sent" 	19.745
scalar VoIPMCoAMulti.R1.eth[1].mac 	"frames/sec rcvd" 	0.05
scalar VoIPMCoAMulti.R1.eth[1].mac 	"bits/sec sent" 	12087.04
scalar VoIPMCoAMulti.R1.eth[1].mac 	"bits/sec rcvd" 	30.24
scalar VoIPMCoAMulti.R1.eth[1].mac 	"rx channel idle (%)" 	99.9996656
scalar VoIPMCoAMulti.R1.eth[1].mac 	"rx channel utilization (%)" 	0.0003344
scalar VoIPMCoAMulti.R1.eth[1].mac 	"rx channel collision (%)" 	0
scalar VoIPMCoAMulti.R1.eth[1].mac 	collisions 	0
scalar VoIPMCoAMulti.R1.eth[1].mac 	backoffs 	0
scalar VoIPMCoAMulti.R1.eth[1].encap 	"packets from higher layer" 	3949
scalar VoIPMCoAMulti.R1.eth[1].encap 	"frames from MAC" 	10
scalar VoIPMCoAMulti.R1.eth[2].queue 	"packets received by queue" 	3874
scalar VoIPMCoAMulti.R1.eth[2].queue 	"packets dropped by queue" 	0
scalar VoIPMCoAMulti.R1.eth[2].mac 	"simulated time" 	200
scalar VoIPMCoAMulti.R1.eth[2].mac 	"txrate (Mb)" 	10
scalar VoIPMCoAMulti.R1.eth[2].mac 	"full duplex" 	1
scalar VoIPMCoAMulti.R1.eth[2].mac 	"frames sent" 	3874
scalar VoIPMCoAMulti.R1.eth[2].mac 	"frames rcvd" 	9
scalar VoIPMCoAMulti.R1.eth[2].mac 	"bytes sent" 	265984
scalar VoIPMCoAMulti.R1.eth[2].mac 	"bytes rcvd" 	782
scalar VoIPMCoAMulti.R1.eth[2].mac 	"frames from higher layer" 	3874
scalar VoIPMCoAMulti.R1.eth[2].mac 	"frames from higher layer dropped (iface down)" 	0
scalar VoIPMCoAMulti.R1.eth[2].mac 	"frames dropped (bit error)" 	0
scalar VoIPMCoAMulti.R1.eth[2].mac 	"frames dropped (not for us)" 	0
scalar VoIPMCoAMulti.R1.eth[2].mac 	"frames passed up to HL" 	9
scalar VoIPMCoAMulti.R1.eth[2].mac 	"PAUSE frames sent" 	0
scalar VoIPMCoAMulti.R1.eth[2].mac 	"PAUSE frames rcvd" 	0
scalar VoIPMCoAMulti.R1.eth[2].mac 	"frames/sec sent" 	19.37
scalar VoIPMCoAMulti.R1.eth[2].mac 	"frames/sec rcvd" 	0.045
scalar VoIPMCoAMulti.R1.eth[2].mac 	"bits/sec sent" 	10639.36
scalar VoIPMCoAMulti.R1.eth[2].mac 	"bits/sec rcvd" 	31.28
scalar VoIPMCoAMulti.R1.eth[2].mac 	"rx channel idle (%)" 	99.9996584
scalar VoIPMCoAMulti.R1.eth[2].mac 	"rx channel utilization (%)" 	0.0003416
scalar VoIPMCoAMulti.R1.eth[2].mac 	"rx channel collision (%)" 	0
scalar VoIPMCoAMulti.R1.eth[2].mac 	collisions 	0
scalar VoIPMCoAMulti.R1.eth[2].mac 	backoffs 	0
scalar VoIPMCoAMulti.R1.eth[2].encap 	"packets from higher layer" 	3874
scalar VoIPMCoAMulti.R1.eth[2].encap 	"frames from MAC" 	9
scalar VoIPMCoAMulti.AP_1.wlan.mgmt 	"packets received by queue" 	5969
scalar VoIPMCoAMulti.AP_1.wlan.mgmt 	"packets dropped by queue" 	0
scalar VoIPMCoAMulti.AP_1.wlan.mac 	numSent 	148
scalar VoIPMCoAMulti.AP_1.wlan.mac 	numSentWithoutRetry 	148
scalar VoIPMCoAMulti.AP_1.wlan.mac 	numReceived 	23
scalar VoIPMCoAMulti.AP_1.wlan.mac 	numSentBroadcast 	5821
scalar VoIPMCoAMulti.AP_1.wlan.mac 	numReceivedBroadcast 	4
scalar VoIPMCoAMulti.AP_1.wlan.mac 	numReceivedOther 	0
scalar VoIPMCoAMulti.AP_1.wlan.mac 	numCollision 	0
scalar VoIPMCoAMulti.AP_1.wlan.mac 	numGivenUp 	0
scalar VoIPMCoAMulti.AP_1.wlan.mac 	numAckSend 	23
scalar VoIPMCoAMulti.AP_1.wlan.mac 	numRetry 	0
scalar VoIPMCoAMulti.AP_2.wlan.mgmt 	"packets received by queue" 	5887
scalar VoIPMCoAMulti.AP_2.wlan.mgmt 	"packets dropped by queue" 	0
scalar VoIPMCoAMulti.AP_2.wlan.mac 	numSent 	47
scalar VoIPMCoAMulti.AP_2.wlan.mac 	numSentWithoutRetry 	47
scalar VoIPMCoAMulti.AP_2.wlan.mac 	numReceived 	17
scalar VoIPMCoAMulti.AP_2.wlan.mac 	numSentBroadcast 	5825
scalar VoIPMCoAMulti.AP_2.wlan.mac 	numReceivedBroadcast 	2
scalar VoIPMCoAMulti.AP_2.wlan.mac 	numReceivedOther 	0
scalar VoIPMCoAMulti.AP_2.wlan.mac 	numCollision 	0
scalar VoIPMCoAMulti.AP_2.wlan.mac 	numGivenUp 	15
scalar VoIPMCoAMulti.AP_2.wlan.mac 	numAckSend 	17
scalar VoIPMCoAMulti.AP_2.wlan.mac 	numRetry 	90
scalar VoIPMCoAMulti.Rb.networkLayer.ipv6 	IPv6_numDropNonActive 	0
scalar VoIPMCoAMulti.Rb.networkLayer.ipv6 	IPv6_Forwarded 	280
scalar VoIPMCoAMulti.Rb.eth[0].queue 	"packets received by queue" 	265
scalar VoIPMCoAMulti.Rb.eth[0].queue 	"packets dropped by queue" 	0
scalar VoIPMCoAMulti.Rb.eth[0].mac 	"simulated time" 	200
scalar VoIPMCoAMulti.Rb.eth[0].mac 	"txrate (Mb)" 	10
scalar VoIPMCoAMulti.Rb.eth[0].mac 	"full duplex" 	1
scalar VoIPMCoAMulti.Rb.eth[0].mac 	"frames sent" 	265
scalar VoIPMCoAMulti.Rb.eth[0].mac 	"frames rcvd" 	12
scalar VoIPMCoAMulti.Rb.eth[0].mac 	"bytes sent" 	118892
scalar VoIPMCoAMulti.Rb.eth[0].mac 	"bytes rcvd" 	1046
scalar VoIPMCoAMulti.Rb.eth[0].mac 	"frames from higher layer" 	265
scalar VoIPMCoAMulti.Rb.eth[0].mac 	"frames from higher layer dropped (iface down)" 	0
scalar VoIPMCoAMulti.Rb.eth[0].mac 	"frames dropped (bit error)" 	0
scalar VoIPMCoAMulti.Rb.eth[0].mac 	"frames dropped (not for us)" 	0
scalar VoIPMCoAMulti.Rb.eth[0].mac 	"frames passed up to HL" 	12
scalar VoIPMCoAMulti.Rb.eth[0].mac 	"PAUSE frames sent" 	0
scalar VoIPMCoAMulti.Rb.eth[0].mac 	"PAUSE frames rcvd" 	0
scalar VoIPMCoAMulti.Rb.eth[0].mac 	"frames/sec sent" 	1.325
scalar VoIPMCoAMulti.Rb.eth[0].mac 	"frames/sec rcvd" 	0.06
scalar VoIPMCoAMulti.Rb.eth[0].mac 	"bits/sec sent" 	4755.68
scalar VoIPMCoAMulti.Rb.eth[0].mac 	"bits/sec rcvd" 	41.84
scalar VoIPMCoAMulti.Rb.eth[0].mac 	"rx channel idle (%)" 	99.9995432
scalar VoIPMCoAMulti.Rb.eth[0].mac 	"rx channel utilization (%)" 	0.0004568
scalar VoIPMCoAMulti.Rb.eth[0].mac 	"rx channel collision (%)" 	0
scalar VoIPMCoAMulti.Rb.eth[0].mac 	collisions 	0
scalar VoIPMCoAMulti.Rb.eth[0].mac 	backoffs 	0
scalar VoIPMCoAMulti.Rb.eth[0].encap 	"packets from higher layer" 	265
scalar VoIPMCoAMulti.Rb.eth[0].encap 	"frames from MAC" 	12
scalar VoIPMCoAMulti.Rb.eth[1].queue 	"packets received by queue" 	15
scalar VoIPMCoAMulti.Rb.eth[1].queue 	"packets dropped by queue" 	0
scalar VoIPMCoAMulti.Rb.eth[1].mac 	"simulated time" 	200
scalar VoIPMCoAMulti.Rb.eth[1].mac 	"txrate (Mb)" 	10
scalar VoIPMCoAMulti.Rb.eth[1].mac 	"full duplex" 	0
scalar VoIPMCoAMulti.Rb.eth[1].mac 	"frames sent" 	15
scalar VoIPMCoAMulti.Rb.eth[1].mac 	"frames rcvd" 	269
scalar VoIPMCoAMulti.Rb.eth[1].mac 	"bytes sent" 	1238
scalar VoIPMCoAMulti.Rb.eth[1].mac 	"bytes rcvd" 	119148
scalar VoIPMCoAMulti.Rb.eth[1].mac 	"frames from higher layer" 	15
scalar VoIPMCoAMulti.Rb.eth[1].mac 	"frames from higher layer dropped (iface down)" 	0
scalar VoIPMCoAMulti.Rb.eth[1].mac 	"frames dropped (bit error)" 	0
scalar VoIPMCoAMulti.Rb.eth[1].mac 	"frames dropped (not for us)" 	0
scalar VoIPMCoAMulti.Rb.eth[1].mac 	"frames passed up to HL" 	269
scalar VoIPMCoAMulti.Rb.eth[1].mac 	"PAUSE frames sent" 	0
scalar VoIPMCoAMulti.Rb.eth[1].mac 	"PAUSE frames rcvd" 	0
scalar VoIPMCoAMulti.Rb.eth[1].mac 	"frames/sec sent" 	0.075
scalar VoIPMCoAMulti.Rb.eth[1].mac 	"frames/sec rcvd" 	1.345
scalar VoIPMCoAMulti.Rb.eth[1].mac 	"bits/sec sent" 	49.52
scalar VoIPMCoAMulti.Rb.eth[1].mac 	"bits/sec rcvd" 	4765.92
scalar VoIPMCoAMulti.Rb.eth[1].mac 	"rx channel idle (%)" 	99.9499888
scalar VoIPMCoAMulti.Rb.eth[1].mac 	"rx channel utilization (%)" 	0.0490632
scalar VoIPMCoAMulti.Rb.eth[1].mac 	"rx channel collision (%)" 	0.000948
scalar VoIPMCoAMulti.Rb.eth[1].mac 	collisions 	5
scalar VoIPMCoAMulti.Rb.eth[1].mac 	backoffs 	5
scalar VoIPMCoAMulti.Rb.eth[1].encap 	"packets from higher layer" 	15
scalar VoIPMCoAMulti.Rb.eth[1].encap 	"frames from MAC" 	269
